@<TRIPOS>MOLECULE
tmp/1o9uA00.pdb
 119 111 0 0 0
SMALL
GASTEIGER

@<TRIPOS>ATOM
      1  N         -6.4030   50.5050  139.0050 N.3    28  ILE28      -0.1231
      2  CA        -5.3670   49.6680  138.4190 C.3    28  ILE28       0.1692
      3  C         -5.6110   49.4610  136.9350 C.2    28  ILE28       0.2592
      4  O         -5.0010   48.5960  136.3130 O.2    28  ILE28      -0.2718
      5  CB        -5.2880   48.2830  139.0930 C.3    28  ILE28       0.0266
      6  CG1       -6.6180   47.5380  138.9310 C.3    28  ILE28       0.0019
      7  CG2       -4.9220   48.4480  140.5600 C.3    28  ILE28       0.0020
      8  CD1       -6.5270   46.0510  139.2410 C.3    28  ILE28       0.0001
      9  N         -6.5110   50.2590  136.3750 N.am   29  GLY29      -0.1957
     10  CA        -6.8270   50.1440  134.9660 C.3    29  GLY29       0.1869
     11  C         -7.9140   51.1250  134.5870 C.2    29  GLY29       0.2309
     12  O         -8.8030   51.4060  135.3900 O.2    29  GLY29      -0.2863
     13  N        -14.1430   51.5090  128.0400 N.3    33  PHE33      -0.1241
     14  CA       -15.2240   50.6780  128.5540 C.3    33  PHE33       0.1605
     15  C        -15.5810   51.0810  129.9860 C.2    33  PHE33       0.2264
     16  O        -16.7450   51.0240  130.3870 O.2    33  PHE33      -0.2867
     17  CB       -14.8040   49.2030  128.5090 C.3    33  PHE33       0.0534
     18  CG       -13.5940   48.8930  129.3440 C.ar   33  PHE33      -0.0203
     19  CD1      -13.7220   48.6060  130.7000 C.ar   33  PHE33      -0.0042
     20  CD2      -12.3210   48.9180  128.7810 C.ar   33  PHE33      -0.0042
     21  CE1      -12.6000   48.3500  131.4870 C.ar   33  PHE33      -0.0003
     22  CE2      -11.1910   48.6640  129.5600 C.ar   33  PHE33      -0.0003
     23  CZ       -11.3320   48.3790  130.9150 C.ar   33  PHE33      -0.0000
     24  N        -11.1910   50.2530  136.2760 N.3    36  VAL36      -0.1245
     25  CA       -11.0260   49.0170  137.0220 C.3    36  VAL36       0.1561
     26  C        -10.2810   49.3280  138.3080 C.2    36  VAL36       0.2260
     27  O         -9.2080   49.9190  138.2690 O.2    36  VAL36      -0.2867
     28  CB       -10.2260   47.9690  136.2240 C.3    36  VAL36       0.0252
     29  CG1      -10.1780   46.6620  136.9970 C.3    36  VAL36       0.0019
     30  CG2      -10.8510   47.7620  134.8520 C.3    36  VAL36       0.0019
     31  N        -10.7310   42.6130  141.8520 N.3    49  ALA49      -0.1245
     32  CA       -10.6980   43.6620  140.8390 C.3    49  ALA49       0.1562
     33  C        -12.1360   44.0770  140.5750 C.2    49  ALA49       0.2260
     34  O        -12.9910   43.2320  140.2900 O.2    49  ALA49      -0.2867
     35  CB       -10.0580   43.1440  139.5430 C.3    49  ALA49       0.0290
     36  N        -14.4730   45.9380  138.1380 N.3    51  LYS51      -0.1245
     37  CA       -14.6160   46.5200  136.8170 C.3    51  LYS51       0.1561
     38  C        -15.9420   47.2800  136.7450 C.2    51  LYS51       0.2260
     39  O        -17.0110   46.6750  136.7450 O.2    51  LYS51      -0.2867
     40  CB       -14.5720   45.4140  135.7610 C.3    51  LYS51       0.0271
     41  CG       -14.8000   45.8870  134.3390 C.3    51  LYS51       0.0035
     42  CD       -14.5820   44.7550  133.3400 C.3    51  LYS51       0.0206
     43  CE       -14.7520   45.2410  131.9080 C.3    51  LYS51       0.1093
     44  NZ       -14.4620   44.1650  130.9100 N.3    51  LYS51      -0.1314
     45  N        -11.5530   33.5300  134.8900 N.3    76  VAL76      -0.1245
     46  CA       -11.6170   34.4600  136.0070 C.3    76  VAL76       0.1561
     47  C        -12.9980   34.3360  136.6610 C.2    76  VAL76       0.2260
     48  O        -14.0230   34.4660  135.9900 O.2    76  VAL76      -0.2867
     49  CB       -11.3710   35.9240  135.5330 C.3    76  VAL76       0.0252
     50  CG1      -12.4030   36.3240  134.4890 C.3    76  VAL76       0.0019
     51  CG2      -11.4300   36.8770  136.7210 C.3    76  VAL76       0.0019
     52  N        -14.3700   40.6990  140.4410 N.3    98  LEU98      -0.1231
     53  CA       -13.7050   39.4920  139.9770 C.3    98  LEU98       0.1693
     54  C        -12.4790   39.2350  140.8250 C.2    98  LEU98       0.2592
     55  O        -11.9830   40.1420  141.4830 O.2    98  LEU98      -0.2718
     56  CB       -13.2720   39.6780  138.5340 C.3    98  LEU98       0.0284
     57  CG       -14.3510   40.1680  137.5730 C.3    98  LEU98       0.0019
     58  CD1      -13.7040   41.0250  136.4920 C.3    98  LEU98       0.0001
     59  CD2      -15.0920   38.9710  136.9850 C.3    98  LEU98       0.0001
     60  N        -11.9890   38.0000  140.8170 N.am   99  ASP99      -0.1960
     61  CA       -10.7820   37.6780  141.5730 C.3    99  ASP99       0.1840
     62  C         -9.6320   38.4570  140.9480 C.2    99  ASP99       0.2622
     63  O         -9.5610   38.5840  139.7280 O.2    99  ASP99      -0.2715
     64  CB       -10.4500   36.1800  141.4960 C.3    99  ASP99       0.1450
     65  CG       -11.2610   35.3410  142.4700 C.2    99  ASP99       0.3671
     66  OD1      -11.5510   35.8210  143.5970 O.co2  99  ASP99      -0.2456
     67  OD2      -11.5930   34.1890  142.1140 O.co2  99  ASP99      -0.2456
     68  N         -8.7360   38.9730  141.7820 N.am  100  TYR100     -0.1960
     69  CA        -7.5840   39.7300  141.2990 C.3   100  TYR100      0.1771
     70  C         -6.4290   38.7940  140.9650 C.2   100  TYR100      0.2619
     71  O         -6.0640   37.9430  141.7730 O.2   100  TYR100     -0.2715
     72  CB        -7.1070   40.7220  142.3590 C.3   100  TYR100      0.0574
     73  CG        -5.8290   41.4350  141.9690 C.ar  100  TYR100     -0.0198
     74  CD1       -5.8280   42.3860  140.9490 C.ar  100  TYR100     -0.0009
     75  CD2       -4.6140   41.1400  142.6040 C.ar  100  TYR100     -0.0009
     76  CE1       -4.6620   43.0280  140.5670 C.ar  100  TYR100      0.0417
     77  CE2       -3.4360   41.7780  142.2290 C.ar  100  TYR100      0.0417
     78  CZ        -3.4690   42.7220  141.2080 C.ar  100  TYR100      0.1957
     79  OH        -2.3150   43.3640  140.8200 O.3   100  TYR100     -0.2866
     80  N         -5.8540   38.9470  139.7780 N.am  101  VAL101     -0.1977
     81  CA        -4.7190   38.1170  139.3960 C.3   101  VAL101      0.1596
     82  C         -3.5600   39.0700  139.0670 C.2   101  VAL101      0.2287
     83  O         -3.7040   39.9860  138.2620 O.2   101  VAL101     -0.2864
     84  CB        -5.0760   37.1980  138.2060 C.3   101  VAL101      0.0276
     85  CG1       -4.0050   36.1430  138.0110 C.3   101  VAL101      0.0022
     86  CG2       -6.4160   36.5070  138.4720 C.3   101  VAL101      0.0022
     87  N          2.4960   40.3150  129.8640 N.3   107  ARG107     -0.1245
     88  CA         3.5540   40.9150  130.6800 C.3   107  ARG107      0.1563
     89  C          4.7480   40.0030  130.8870 C.2   107  ARG107      0.2260
     90  O          5.8930   40.4600  130.9010 O.2   107  ARG107     -0.2867
     91  CB         3.0040   41.3660  132.0310 C.3   107  ARG107      0.0307
     92  CG         2.2050   42.6330  131.9020 C.3   107  ARG107      0.0489
     93  CD         1.4490   42.9690  133.1600 C.3   107  ARG107      0.2205
     94  NE         0.2700   43.7500  132.8180 N.pl3 107  ARG107     -0.0865
     95  CZ        -0.7160   44.0110  133.6630 C.cat 107  ARG107      0.5346
     96  NH1       -0.6550   43.5560  134.9050 N.pl3 107  ARG107      0.1354
     97  NH2       -1.7680   44.7090  133.2550 N.pl3 107  ARG107      0.1354
     98  N         -4.6760   35.8920  132.2960 N.3   154  LEU154     -0.1245
     99  CA        -4.1700   36.1900  133.6370 C.3   154  LEU154      0.1561
    100  C         -3.3940   34.9870  134.1720 C.2   154  LEU154      0.2260
    101  O         -3.7510   33.8380  133.9090 O.2   154  LEU154     -0.2867
    102  CB        -5.3330   36.5210  134.5810 C.3   154  LEU154      0.0270
    103  CG        -6.3130   37.6020  134.1010 C.3   154  LEU154      0.0019
    104  CD1       -7.3990   37.8120  135.1540 C.3   154  LEU154      0.0001
    105  CD2       -5.5800   38.8990  133.8300 C.3   154  LEU154      0.0001
    106  N         -9.8510   35.8560  130.9170 N.3   165  CYS165     -0.1221
    107  CA       -10.6810   36.9420  131.4270 C.3   165  CYS165      0.1808
    108  C        -11.1950   37.8110  130.2820 C.2   165  CYS165      0.2601
    109  O        -11.0650   37.4550  129.1130 O.2   165  CYS165     -0.2717
    110  CB        -9.9020   37.7990  132.4240 C.3   165  CYS165      0.0970
    111  SG        -8.7110   38.9590  131.7030 S.3   165  CYS165     -0.0800
    112  N        -11.8020   38.9370  130.6380 N.am  166  ASP166     -0.1973
    113  CA       -12.3520   39.9030  129.6830 C.3   166  ASP166      0.1709
    114  C        -13.4020   39.3170  128.7300 C.2   166  ASP166      0.2293
    115  O        -13.0940   39.0040  127.5770 O.2   166  ASP166     -0.2864
    116  CB       -11.2130   40.5460  128.8640 C.3   166  ASP166      0.1436
    117  CG       -11.6420   41.8360  128.1640 C.2   166  ASP166      0.3671
    118  OD1      -12.7740   41.8900  127.6310 O.co2 166  ASP166     -0.2456
    119  OD2      -10.8400   42.7980  128.1330 O.co2 166  ASP166     -0.2456
@<TRIPOS>BOND
     1   115   114    2
     2   118   117   ar
     3    13    14    1
     4   119   117   ar
     5   117   116    1
     6    17    14    1
     7    17    18    1
     8    14    15    1
     9   114   113    1
    10    20    18   ar
    11    20    22   ar
    12   116   113    1
    13   109   108    2
    14    18    19   ar
    15    22    23   ar
    16   113   112    1
    17    87    88    1
    18    15    16    2
    19   108   112   am
    20   108   107    1
    21    88    89    1
    22    88    91    1
    23    19    21   ar
    24    89    90    2
    25    44    43    1
    26    23    21   ar
    27   106   107    1
    28   107   110    1
    29   111   110    1
    30    92    91    1
    31    92    93    1
    32    43    42    1
    33    98    99    1
    34    94    93    1
    35    94    95    2
    36    97    95    1
    37    42    41    1
    38    99   100    1
    39    99   102    1
    40    95    96    1
    41   105   103    1
    42   101   100    2
    43   103   102    1
    44   103   104    1
    45    41    40    1
    46    50    49    1
    47    11    10    1
    48    11    12    2
    49    30    28    1
    50    45    46    1
    51    10     9    1
    52    49    46    1
    53    49    51    1
    54    40    37    1
    55    48    47    2
    56    46    47    1
    57    28    29    1
    58    28    25    1
    59    24    25    1
    60     4     3    2
    61     9     3   am
    62    58    57    1
    63    38    39    2
    64    38    37    1
    65    37    36    1
    66     3     2    1
    67    59    57    1
    68    25    26    1
    69    57    56    1
    70    85    84    1
    71    84    86    1
    72    84    81    1
    73    83    82    2
    74    27    26    2
    75     2     1    1
    76     2     5    1
    77    56    53    1
    78     6     5    1
    79     6     8    1
    80    82    81    1
    81     5     7    1
    82    81    80    1
    83    35    32    1
    84    63    62    2
    85    80    70   am
    86    53    52    1
    87    53    54    1
    88    34    33    2
    89    76    74   ar
    90    76    78   ar
    91    33    32    1
    92    60    54   am
    93    60    61    1
    94    79    78    1
    95    54    55    2
    96    32    31    1
    97    62    61    1
    98    62    68   am
    99    74    73   ar
   100    70    69    1
   101    70    71    2
   102    78    77   ar
   103    69    68    1
   104    69    72    1
   105    64    61    1
   106    64    65    1
   107    73    72    1
   108    73    75   ar
   109    67    65   ar
   110    77    75   ar
   111    65    66   ar
