@<TRIPOS>MOLECULE
tmp/1o9vA00.pdb
 99 96 0 0 0
SMALL
GASTEIGER

@<TRIPOS>ATOM
      1  N         31.3070   42.6670   17.2270 N.3    37  ALA37      -0.1231
      2  CA        32.5020   43.3730   16.7650 C.3    37  ALA37       0.1694
      3  C         33.6990   43.1800   17.6750 C.2    37  ALA37       0.2592
      4  O         34.8220   43.4540   17.2650 O.2    37  ALA37      -0.2718
      5  CB        32.2110   44.9000   16.6730 C.3    37  ALA37       0.0304
      6  N         33.4430   42.6940   18.8980 N.am   38  ASN38      -0.1974
      7  CA        34.4680   42.6080   19.9220 C.3    38  ASN38       0.1688
      8  C         34.6790   41.2490   20.5430 C.2    38  ASN38       0.2292
      9  O         34.1490   40.9240   21.6230 O.2    38  ASN38      -0.2864
     10  CB        34.1080   43.6430   20.9910 C.3    38  ASN38       0.1181
     11  CG        33.5420   44.9280   20.3890 C.2    38  ASN38       0.2629
     12  OD1       32.3410   45.2460   20.5790 O.2    38  ASN38      -0.2716
     13  ND2       34.3610   45.6540   19.6490 N.am   38  ASN38      -0.0877
     14  N         34.1130   38.2800    8.8770 N.3    82  ASP82      -0.1225
     15  CA        34.4000   39.4510    9.7070 C.3    82  ASP82       0.1805
     16  C         33.0670   40.0350   10.2170 C.2    82  ASP82       0.2598
     17  O         31.9530   39.5800    9.8430 O.2    82  ASP82      -0.2718
     18  CB        35.1990   40.4980    8.9020 C.3    82  ASP82       0.1424
     19  CG        35.8110   41.5990    9.7770 C.2    82  ASP82       0.3668
     20  OD1       36.1010   41.3620   10.9920 O.co2  82  ASP82      -0.2456
     21  OD2       36.0200   42.7020    9.2180 O.co2  82  ASP82      -0.2456
     22  N         33.1690   41.0190   11.1020 N.am   83  THR83      -0.1939
     23  CA        31.9700   41.5860   11.7440 C.3    83  THR83       0.2028
     24  C         30.7650   41.9400   10.8680 C.2    83  THR83       0.2642
     25  O         29.6590   41.4570   11.0920 O.2    83  THR83      -0.2714
     26  CB        32.3740   42.8300   12.5760 C.3    83  THR83       0.1808
     27  OG1       33.4480   42.4640   13.4490 O.3    83  THR83      -0.2208
     28  CG2       31.2150   43.3320   13.3970 C.3    83  THR83       0.0379
     29  N         30.9800   42.7690    9.8580 N.am   84  LYS84      -0.1977
     30  CA        29.8990   43.1960    8.9840 C.3    84  LYS84       0.1596
     31  C         29.3070   42.0590    8.1500 C.2    84  LYS84       0.2287
     32  O         30.0140   41.3350    7.4520 O.2    84  LYS84      -0.2864
     33  CB        30.3850   44.3550    8.1050 C.3    84  LYS84       0.0298
     34  CG        30.5300   45.6020    8.9790 C.3    84  LYS84       0.0038
     35  CD        31.0720   46.7930    8.2530 C.3    84  LYS84       0.0206
     36  CE        31.3880   47.8790    9.2810 C.3    84  LYS84       0.1093
     37  NZ        31.8900   49.1190    8.6610 N.3    84  LYS84      -0.1314
     38  N         30.3960   41.0900    4.5630 N.3    87  ARG87      -0.1245
     39  CA        31.7070   40.5210    4.3170 C.3    87  ARG87       0.1563
     40  C         31.7540   39.0100    4.5260 C.2    87  ARG87       0.2260
     41  O         32.8150   38.3950    4.4620 O.2    87  ARG87      -0.2867
     42  CB        32.7440   41.1990    5.1920 C.3    87  ARG87       0.0307
     43  CG        33.0430   42.5400    4.5230 C.3    87  ARG87       0.0489
     44  CD        33.7800   43.4660    5.3730 C.3    87  ARG87       0.2205
     45  NE        33.4490   44.8300    4.9760 N.pl3  87  ARG87      -0.0865
     46  CZ        33.8890   45.8930    5.6160 C.cat  87  ARG87       0.5346
     47  NH1       34.6770   45.7390    6.6640 N.pl3  87  ARG87       0.1354
     48  NH2       33.5060   47.1020    5.2290 N.pl3  87  ARG87       0.1354
     49  N         38.0120   35.3790    6.4600 N.3   100  PHE100     -0.1241
     50  CA        38.3700   36.7920    6.5310 C.3   100  PHE100      0.1605
     51  C         39.8680   36.8290    6.3520 C.2   100  PHE100      0.2264
     52  O         40.6140   36.3450    7.2100 O.2   100  PHE100     -0.2867
     53  CB        37.9630   37.4190    7.8720 C.3   100  PHE100      0.0534
     54  CG        38.4810   38.8480    8.0720 C.ar  100  PHE100     -0.0203
     55  CD1       38.4020   39.7960    7.0490 C.ar  100  PHE100     -0.0042
     56  CD2       38.9600   39.2500    9.3120 C.ar  100  PHE100     -0.0042
     57  CE1       38.7850   41.1160    7.2500 C.ar  100  PHE100     -0.0003
     58  CE2       39.3520   40.5740    9.5450 C.ar  100  PHE100     -0.0003
     59  CZ        39.2650   41.5170    8.5000 C.ar  100  PHE100     -0.0000
     60  N         43.4830   41.7600    8.8160 N.3   103  TRP103     -0.1241
     61  CA        43.9740   43.1250    8.8760 C.3   103  TRP103      0.1605
     62  C         45.0040   43.2370    9.9860 C.2   103  TRP103      0.2264
     63  O         45.1380   42.3260   10.8120 O.2   103  TRP103     -0.2867
     64  CB        42.8630   44.1350    9.1130 C.3   103  TRP103      0.0550
     65  CG        42.3320   44.2210   10.5170 C.ar  103  TRP103      0.0003
     66  CD1       41.6940   43.2360   11.2200 C.ar  103  TRP103      0.0946
     67  CD2       42.2870   45.3910   11.3360 C.ar  103  TRP103      0.0152
     68  NE1       41.2430   43.7330   12.4270 N.ar  103  TRP103     -0.2442
     69  CE2       41.5890   45.0530   12.5180 C.ar  103  TRP103      0.0810
     70  CE3       42.7560   46.6940   11.1820 C.ar  103  TRP103      0.0012
     71  CZ2       41.3460   45.9760   13.5350 C.ar  103  TRP103      0.0191
     72  CZ3       42.5110   47.6110   12.1920 C.ar  103  TRP103      0.0001
     73  CH2       41.8100   47.2400   13.3600 C.ar  103  TRP103      0.0015
     74  N         42.4770   48.2660   18.8780 N.3   111  SER111     -0.1202
     75  CA        41.1360   48.1160   18.3510 C.3   111  SER111      0.2020
     76  C         40.6500   46.7260   18.7440 C.2   111  SER111      0.2619
     77  O         41.1560   46.1450   19.6970 O.2   111  SER111     -0.2717
     78  CB        41.1340   48.3280   16.8240 C.3   111  SER111      0.2103
     79  OG        39.7810   48.3800   16.3320 O.3   111  SER111     -0.2182
     80  N         39.6350   46.2030   18.0750 N.am  112  THR112     -0.1938
     81  CA        39.1460   44.8760   18.4030 C.3   112  THR112      0.2028
     82  C         38.9500   44.0760   17.1200 C.2   112  THR112      0.2642
     83  O         38.9530   44.6260   16.0160 O.2   112  THR112     -0.2714
     84  CB        37.7630   44.9200   19.1060 C.3   112  THR112      0.1808
     85  OG1       36.8770   45.7070   18.3040 O.3   112  THR112     -0.2208
     86  CG2       37.8530   45.5220   20.5010 C.3   112  THR112      0.0379
     87  N         38.8190   42.7640   17.2570 N.am  113  GLN113     -0.1963
     88  CA        38.5750   41.9330   16.0790 C.3   113  GLN113      0.1733
     89  C         37.2580   41.2550   16.3800 C.2   113  GLN113      0.2616
     90  O         37.0610   40.7160   17.4930 O.2   113  GLN113     -0.2715
     91  CB        39.7030   40.9060   15.8850 C.3   113  GLN113      0.0408
     92  CG        39.4000   39.8180   14.8340 C.3   113  GLN113      0.0908
     93  CD        39.1000   40.4430   13.4550 C.2   113  GLN113      0.2608
     94  OE1       39.8250   41.3430   13.0110 O.2   113  GLN113     -0.2717
     95  NE2       38.0380   39.9620   12.7900 N.am  113  GLN113     -0.0878
     96  N         36.3530   41.2950   15.4040 N.am  114  GLY114     -0.1955
     97  CA        35.0330   40.7140   15.5600 C.3   114  GLY114      0.1869
     98  C         34.7330   39.5840   14.5830 C.2   114  GLY114      0.2309
     99  O         35.6290   39.0620   13.9130 O.2   114  GLY114     -0.2863
@<TRIPOS>BOND
     1    39    40    1
     2    39    38    1
     3    39    42    1
     4    41    40    2
     5    43    42    1
     6    43    44    1
     7    45    44    1
     8    45    46    2
     9    48    46    1
    10    46    47    1
    11    51    50    1
    12    51    52    2
    13    49    50    1
    14    50    53    1
    15    55    57   ar
    16    55    54   ar
    17    57    59   ar
    18    32    31    2
    19    53    54    1
    20    54    56   ar
    21    33    34    1
    22    33    30    1
    23    31    30    1
    24    35    34    1
    25    35    36    1
    26    59    58   ar
    27    37    36    1
    28    60    61    1
    29    61    64    1
    30    61    62    1
    31    14    15    1
    32    18    15    1
    33    18    19    1
    34    30    29    1
    35    64    65    1
    36    21    19   ar
    37    56    58   ar
    38    15    16    1
    39    19    20   ar
    40    17    16    2
    41    29    24   am
    42    62    63    2
    43    16    22   am
    44    65    66   ar
    45    65    67   ar
    46    24    25    2
    47    24    23    1
    48    22    23    1
    49    70    67   ar
    50    70    72   ar
    51    66    68   ar
    52    67    69   ar
    53    23    26    1
    54    72    73   ar
    55    68    69   ar
    56    69    71   ar
    57    26    28    1
    58    26    27    1
    59    95    93   am
    60    94    93    2
    61    73    71   ar
    62    93    92    1
    63    99    98    2
    64    98    97    1
    65    92    91    1
    66    96    97    1
    67    96    89   am
    68    91    88    1
    69    83    82    2
    70    88    89    1
    71    88    87    1
    72    79    78    1
    73    89    90    2
    74     5     2    1
    75     2     1    1
    76     2     3    1
    77    78    75    1
    78    82    87   am
    79    82    81    1
    80     4     3    2
    81     3     6   am
    82    80    81    1
    83    80    76   am
    84    85    84    1
    85    75    76    1
    86    75    74    1
    87    81    84    1
    88    76    77    2
    89     6     7    1
    90    84    86    1
    91    13    11   am
    92     7     8    1
    93     7    10    1
    94    11    12    2
    95    11    10    1
    96     8     9    2
