@<TRIPOS>MOLECULE
tmp/1o9xA03.pdb
 90 85 0 0 0
SMALL
GASTEIGER

@<TRIPOS>ATOM
      1  N         40.3230   79.1410   19.9390 N.3   398  TYR398     -0.1227
      2  CA        40.7790   80.2950   19.1720 C.3   398  TYR398      0.1736
      3  C         41.7920   79.8950   18.1220 C.2   398  TYR398      0.2595
      4  O         41.6350   80.1940   16.9400 O.2   398  TYR398     -0.2718
      5  CB        41.4330   81.3250   20.0950 C.3   398  TYR398      0.0548
      6  CG        42.1460   82.4440   19.3540 C.ar  398  TYR398     -0.0200
      7  CD1       41.4970   83.6470   19.0610 C.ar  398  TYR398     -0.0009
      8  CD2       43.4740   82.2950   18.9410 C.ar  398  TYR398     -0.0009
      9  CE1       42.1590   84.6770   18.3800 C.ar  398  TYR398      0.0417
     10  CE2       44.1380   83.3140   18.2610 C.ar  398  TYR398      0.0417
     11  CZ        43.4790   84.4970   17.9890 C.ar  398  TYR398      0.1957
     12  OH        44.1610   85.4980   17.3540 O.3   398  TYR398     -0.2866
     13  N         42.8420   79.2250   18.5730 N.am  399  LYS399     -0.1980
     14  CA        43.9070   78.8100   17.6800 C.3   399  LYS399      0.1596
     15  C         43.4270   77.9150   16.5370 C.2   399  LYS399      0.2287
     16  O         43.9520   77.9930   15.4200 O.2   399  LYS399     -0.2864
     17  CB        45.0040   78.0970   18.4740 C.3   399  LYS399      0.0298
     18  CG        46.1680   78.9830   18.8500 C.3   399  LYS399      0.0038
     19  CD        46.6540   79.7570   17.6170 C.3   399  LYS399      0.0206
     20  CE        46.8430   78.8180   16.4030 C.3   399  LYS399      0.1093
     21  NZ        47.2600   79.4970   15.1820 N.3   399  LYS399     -0.1314
     22  N         41.6980   79.8960   13.6160 N.3   402  ASN402     -0.1240
     23  CA        42.6660   80.4290   12.6710 C.3   402  ASN402      0.1653
     24  C         42.9650   79.3740   11.6110 C.2   402  ASN402      0.2266
     25  O         43.0350   79.6690   10.4140 O.2   402  ASN402     -0.2867
     26  CB        43.9610   80.8040   13.3860 C.3   402  ASN402      0.1155
     27  CG        43.7620   81.8860   14.4100 C.2   402  ASN402      0.2627
     28  OD1       43.0420   82.8510   14.1670 O.2   402  ASN402     -0.2716
     29  ND2       44.4100   81.7450   15.5620 N.am  402  ASN402     -0.0877
     30  N         42.3600   90.6260   15.0170 N.3   522  LYS522     -0.1245
     31  CA        43.4850   89.7670   14.6520 C.3   522  LYS522      0.1561
     32  C         43.0880   88.8510   13.5020 C.2   522  LYS522      0.2260
     33  O         43.7100   88.8570   12.4430 O.2   522  LYS522     -0.2867
     34  CB        43.9060   88.8680   15.8090 C.3   522  LYS522      0.0271
     35  CG        44.4960   89.5400   17.0250 C.3   522  LYS522      0.0035
     36  CD        44.8880   88.4650   18.0380 C.3   522  LYS522      0.0206
     37  CE        45.6540   89.0250   19.2230 C.3   522  LYS522      0.1093
     38  NZ        46.0610   87.9460   20.1770 N.3   522  LYS522     -0.1314
     39  N         42.8600   90.3860   10.0700 N.3   525  ALA525     -0.1231
     40  CA        44.1630   90.5930    9.4550 C.3   525  ALA525      0.1694
     41  C         44.6500   89.3140    8.7750 C.2   525  ALA525      0.2591
     42  O         45.1140   89.3410    7.6310 O.2   525  ALA525     -0.2718
     43  CB        45.1670   91.0500   10.5020 C.3   525  ALA525      0.0304
     44  N         44.5340   88.1940    9.4820 N.am  526  LEU526     -0.1980
     45  CA        44.9640   86.9090    8.9470 C.3   526  LEU526      0.1596
     46  C         44.3100   86.6340    7.6090 C.2   526  LEU526      0.2287
     47  O         44.9890   86.4470    6.6010 O.2   526  LEU526     -0.2864
     48  CB        44.6210   85.7760    9.9190 C.3   526  LEU526      0.0297
     49  CG        44.6500   84.3600    9.3300 C.3   526  LEU526      0.0022
     50  CD1       45.9480   84.1220    8.5890 C.3   526  LEU526      0.0001
     51  CD2       44.4770   83.3450   10.4410 C.3   526  LEU526      0.0001
     52  N         45.7430   88.6770    4.9830 N.3   529  LEU529     -0.1245
     53  CA        47.0820   88.2100    4.6380 C.3   529  LEU529      0.1561
     54  C         47.0540   87.0290    3.6660 C.2   529  LEU529      0.2260
     55  O         47.8030   87.0080    2.6880 O.2   529  LEU529     -0.2867
     56  CB        47.8330   87.8200    5.9130 C.3   529  LEU529      0.0270
     57  CG        49.1940   87.1480    5.7530 C.3   529  LEU529      0.0019
     58  CD1       50.0340   87.9080    4.7470 C.3   529  LEU529      0.0001
     59  CD2       49.8820   87.0890    7.1080 C.3   529  LEU529      0.0001
     60  N         54.7580   83.9480   10.6460 N.3   544  VAL544     -0.1231
     61  CA        54.2150   85.2880   10.6830 C.3   544  VAL544      0.1692
     62  C         53.3300   85.5490   11.9000 C.2   544  VAL544      0.2591
     63  O         53.5990   86.4570   12.6740 O.2   544  VAL544     -0.2718
     64  CB        53.4150   85.5840    9.4040 C.3   544  VAL544      0.0266
     65  CG1       52.7490   86.9330    9.5160 C.3   544  VAL544      0.0020
     66  CG2       54.3490   85.5570    8.1930 C.3   544  VAL544      0.0020
     67  N         52.2850   84.7510   12.0820 N.am  545  MET545     -0.1979
     68  CA        51.3680   84.9620   13.2040 C.3   545  MET545      0.1605
     69  C         52.0470   85.0230   14.5680 C.2   545  MET545      0.2287
     70  O         51.5630   85.6840   15.4890 O.2   545  MET545     -0.2864
     71  CB        50.2990   83.8670   13.2430 C.3   545  MET545      0.0413
     72  CG        49.4480   83.7460   11.9890 C.3   545  MET545      0.0598
     73  SD        47.9510   82.7730   12.2980 S.3   545  MET545     -0.1393
     74  CE        48.5560   81.0910   12.1420 C.3   545  MET545      0.0692
     75  N         53.8780   88.2660   15.2630 N.3   548  PHE548     -0.1227
     76  CA        52.7600   89.1670   15.5170 C.3   548  PHE548      0.1736
     77  C         52.2310   88.9980   16.9330 C.2   548  PHE548      0.2595
     78  O         52.0570   89.9740   17.6540 O.2   548  PHE548     -0.2718
     79  CB        51.6250   88.9000   14.5360 C.3   548  PHE548      0.0547
     80  CG        50.4510   89.8130   14.7200 C.ar  548  PHE548     -0.0202
     81  CD1       50.4690   91.1010   14.2040 C.ar  548  PHE548     -0.0042
     82  CD2       49.3290   89.3930   15.4250 C.ar  548  PHE548     -0.0042
     83  CE1       49.3830   91.9610   14.3850 C.ar  548  PHE548     -0.0003
     84  CE2       48.2380   90.2460   15.6120 C.ar  548  PHE548     -0.0003
     85  CZ        48.2670   91.5310   15.0890 C.ar  548  PHE548     -0.0000
     86  N         51.9600   87.7540   17.3180 N.am  549  ALA549     -0.1980
     87  CA        51.4560   87.4680   18.6530 C.3   549  ALA549      0.1597
     88  C         52.3180   88.2220   19.6490 C.2   549  ALA549      0.2287
     89  O         51.8150   88.9950   20.4670 O.2   549  ALA549     -0.2864
     90  CB        51.5240   85.9760   18.9290 C.3   549  ALA549      0.0319
@<TRIPOS>BOND
     1    55    54    2
     2    54    53    1
     3    53    52    1
     4    53    56    1
     5    58    57    1
     6    57    56    1
     7    57    59    1
     8    47    46    2
     9    46    45    1
    10    42    41    2
    11    66    64    1
    12    50    49    1
    13    41    40    1
    14    41    44   am
    15    45    44    1
    16    45    48    1
    17    49    48    1
    18    49    51    1
    19    64    65    1
    20    64    61    1
    21    40    39    1
    22    40    43    1
    23    25    24    2
    24    60    61    1
    25    61    62    1
    26    24    23    1
    27    62    67   am
    28    62    63    2
    29    72    73    1
    30    72    71    1
    31    67    68    1
    32    74    73    1
    33    33    32    2
    34    23    26    1
    35    23    22    1
    36    68    71    1
    37    68    69    1
    38    26    27    1
    39    32    31    1
    40    28    27    2
    41    81    83   ar
    42    81    80   ar
    43    83    85   ar
    44    27    29   am
    45    79    80    1
    46    79    76    1
    47    69    70    2
    48    31    30    1
    49    31    34    1
    50    80    82   ar
    51    85    84   ar
    52    21    20    1
    53    75    76    1
    54    16    15    2
    55    82    84   ar
    56    76    77    1
    57    34    35    1
    58    20    19    1
    59    15    14    1
    60    77    86   am
    61    77    78    2
    62     4     3    2
    63    35    36    1
    64    86    87    1
    65    12    11    1
    66    19    18    1
    67    14    17    1
    68    14    13    1
    69    11    10   ar
    70    11     9   ar
    71    36    37    1
    72     3    13   am
    73     3     2    1
    74    10     8   ar
    75     9     7   ar
    76    17    18    1
    77    87    90    1
    78    87    88    1
    79     8     6   ar
    80     7     6   ar
    81     2     1    1
    82     2     5    1
    83    37    38    1
    84     6     5    1
    85    88    89    2
