@<TRIPOS>MOLECULE
tmp/1oa3B00.pdb
 72 71 0 0 0
SMALL
GASTEIGER

@<TRIPOS>ATOM
      1  N        -13.3450   35.8750   78.8740 N.3   120  LEU120     -0.1231
      2  CA       -14.4240   35.5190   79.7880 C.3   120  LEU120      0.1693
      3  C        -15.6090   36.4630   79.6460 C.2   120  LEU120      0.2593
      4  O        -16.7420   36.0720   79.9360 O.2   120  LEU120     -0.2718
      5  CB       -13.9540   35.5630   81.2360 C.3   120  LEU120      0.0284
      6  CG       -12.7940   34.6740   81.6550 C.3   120  LEU120      0.0019
      7  CD1      -12.6020   34.7850   83.1630 C.3   120  LEU120      0.0001
      8  CD2      -12.9890   33.2210   81.2350 C.3   120  LEU120      0.0001
      9  N        -15.3440   37.7010   79.2500 N.am  121  GLY121     -0.1942
     10  CA       -16.3870   38.7040   79.0970 C.3   121  GLY121      0.2014
     11  C        -16.2630   39.4640   77.8090 C.2   121  GLY121      0.2639
     12  O        -15.1870   39.5640   77.2410 O.2   121  GLY121     -0.2714
     13  N        -17.3890   39.9770   77.3340 N.am  122  LYS122     -0.1963
     14  CA       -17.4360   40.7610   76.1110 C.3   122  LYS122      0.1728
     15  C        -18.7300   41.5510   76.1540 C.2   122  LYS122      0.2616
     16  O        -19.8140   40.9700   76.2780 O.2   122  LYS122     -0.2715
     17  CB       -17.4220   39.8440   74.8810 C.3   122  LYS122      0.0311
     18  CG       -17.3860   40.5430   73.5350 C.3   122  LYS122      0.0038
     19  CD       -17.4760   39.5310   72.3950 C.3   122  LYS122      0.0206
     20  CE       -18.8570   38.9140   72.2550 C.3   122  LYS122      0.1093
     21  NZ       -18.9280   37.8020   71.2530 N.3   122  LYS122     -0.1314
     22  N        -18.6140   42.8690   76.0580 N.am  123  TYR123     -0.1960
     23  CA       -19.7750   43.7580   76.0490 C.3   123  TYR123      0.1771
     24  C        -19.6980   44.6350   74.8240 C.2   123  TYR123      0.2620
     25  O        -18.6240   45.1290   74.4630 O.2   123  TYR123     -0.2715
     26  CB       -19.8400   44.6110   77.3130 C.3   123  TYR123      0.0574
     27  CG       -20.1660   43.7830   78.5340 C.ar  123  TYR123     -0.0198
     28  CD1      -21.4820   43.4060   78.8110 C.ar  123  TYR123     -0.0009
     29  CD2      -19.1780   43.3380   79.3720 C.ar  123  TYR123     -0.0009
     30  CE1      -21.7920   42.6290   79.9050 C.ar  123  TYR123      0.0417
     31  CE2      -19.4770   42.5560   80.4800 C.ar  123  TYR123      0.0417
     32  CZ       -20.7780   42.2100   80.7410 C.ar  123  TYR123      0.1957
     33  OH       -21.0770   41.4260   81.8220 O.3   123  TYR123     -0.2866
     34  N        -20.8380   44.8100   74.1650 N.am  124  GLY124     -0.1954
     35  CA       -20.8770   45.6710   73.0000 C.3   124  GLY124      0.1869
     36  C        -20.6350   44.8560   71.7600 C.2   124  GLY124      0.2309
     37  O        -20.3650   43.6560   71.8480 O.2   124  GLY124     -0.2863
     38  N        -13.4720   32.6940   72.9020 N.3   159  VAL159     -0.1231
     39  CA       -14.4990   33.5810   73.4510 C.3   159  VAL159      0.1692
     40  C        -15.6560   32.7900   74.0510 C.2   159  VAL159      0.2592
     41  O        -16.2500   31.9390   73.3930 O.2   159  VAL159     -0.2718
     42  CB       -15.0520   34.5260   72.3670 C.3   159  VAL159      0.0266
     43  CG1      -16.0480   35.5140   72.9750 C.3   159  VAL159      0.0020
     44  CG2      -13.9410   35.2560   71.6740 C.3   159  VAL159      0.0020
     45  N        -15.9990   33.0980   75.3030 N.am  160  ALA160     -0.1966
     46  CA       -17.0850   32.4100   75.9980 C.3   160  ALA160      0.1728
     47  C        -18.4550   32.6950   75.3670 C.2   160  ALA160      0.2616
     48  O        -18.5990   33.6420   74.6000 O.2   160  ALA160     -0.2715
     49  CB       -17.0870   32.8010   77.4430 C.3   160  ALA160      0.0334
     50  N        -19.4400   31.8570   75.6870 N.am  161  GLN161     -0.1963
     51  CA       -20.8030   31.9900   75.1530 C.3   161  GLN161      0.1733
     52  C        -21.6930   32.8150   76.0510 C.2   161  GLN161      0.2617
     53  O        -22.7940   33.2150   75.6370 O.2   161  GLN161     -0.2715
     54  CB       -21.4730   30.6230   74.9430 C.3   161  GLN161      0.0408
     55  CG       -20.6270   29.5780   74.2220 C.3   161  GLN161      0.0908
     56  CD       -20.2490   29.9850   72.8330 C.2   161  GLN161      0.2608
     57  OE1      -21.0790   29.9440   71.9230 O.2   161  GLN161     -0.2717
     58  NE2      -18.9900   30.3780   72.6460 N.am  161  GLN161     -0.0878
     59  N        -21.2470   33.0220   77.2860 N.am  162  SER162     -0.1936
     60  CA       -21.9000   33.9160   78.2360 C.3   162  SER162      0.2055
     61  C        -20.7980   34.5440   79.0830 C.2   162  SER162      0.2643
     62  O        -19.7050   34.0080   79.1680 O.2   162  SER162     -0.2714
     63  CB       -22.9060   33.1860   79.1320 C.3   162  SER162      0.2130
     64  OG       -22.2560   32.3060   80.0120 O.3   162  SER162     -0.2179
     65  N        -21.0820   35.6850   79.6940 N.am  163  ASN163     -0.1971
     66  CA       -20.0870   36.3460   80.5450 C.3   163  ASN163      0.1688
     67  C        -19.7810   35.5300   81.7910 C.2   163  ASN163      0.2292
     68  O        -20.6170   35.3820   82.6820 O.2   163  ASN163     -0.2864
     69  CB       -20.5320   37.7580   80.8760 C.3   163  ASN163      0.1181
     70  CG       -20.6380   38.5960   79.6560 C.2   163  ASN163      0.2629
     71  OD1      -19.6460   39.1830   79.2110 O.2   163  ASN163     -0.2716
     72  ND2      -21.8370   38.6030   79.0490 N.am  163  ASN163     -0.0877
@<TRIPOS>BOND
     1    21    20    1
     2    44    42    1
     3    36    37    2
     4    36    35    1
     5    57    56    2
     6    20    19    1
     7    42    43    1
     8    42    39    1
     9    19    18    1
    10    58    56   am
    11    56    55    1
    12    38    39    1
    13    35    34    1
    14    41    40    2
    15    39    40    1
    16    18    17    1
    17    40    45   am
    18    34    24   am
    19    55    54    1
    20    25    24    2
    21    48    47    2
    22    24    23    1
    23    17    14    1
    24    54    51    1
    25    51    50    1
    26    51    52    1
    27    45    46    1
    28    47    50   am
    29    47    46    1
    30    53    52    2
    31    46    49    1
    32    23    22    1
    33    23    26    1
    34    52    59   am
    35    22    15   am
    36    14    15    1
    37    14    13    1
    38    15    16    2
    39    12    11    2
    40    59    60    1
    41    26    27    1
    42    13    11   am
    43    11    10    1
    44    60    61    1
    45    60    63    1
    46    27    28   ar
    47    27    29   ar
    48    28    30   ar
    49     1     2    1
    50    72    70   am
    51    61    62    2
    52    61    65   am
    53    10     9    1
    54    63    64    1
    55    71    70    2
    56     9     3   am
    57    29    31   ar
    58     3     2    1
    59     3     4    2
    60    70    69    1
    61    65    66    1
    62     2     5    1
    63    30    32   ar
    64    31    32   ar
    65    66    69    1
    66    66    67    1
    67    32    33    1
    68     8     6    1
    69     5     6    1
    70     6     7    1
    71    67    68    2
