@<TRIPOS>MOLECULE
tmp/1oa7A00.pdb
 106 100 0 0 0
SMALL
GASTEIGER

@<TRIPOS>ATOM
      1  N         28.8870   25.3030   18.3090 N.3    10  ASP10      -0.1239
      2  CA        27.9120   25.9980   17.4750 C.3    10  ASP10       0.1674
      3  C         28.1230   27.5020   17.3730 C.2    10  ASP10       0.2266
      4  O         27.2840   28.1980   16.8120 O.2    10  ASP10      -0.2867
      5  CB        26.4860   25.7180   17.9770 C.3    10  ASP10       0.1410
      6  CG        26.2780   26.1380   19.4320 C.2    10  ASP10       0.3668
      7  OD1       27.1180   26.8980   19.9590 O.co2  10  ASP10      -0.2456
      8  OD2       25.2720   25.7150   20.0420 O.co2  10  ASP10      -0.2456
      9  N         27.6160   29.7410   19.3450 N.3    12  CYS12      -0.1221
     10  CA        26.6310   30.5300   20.0900 C.3    12  CYS12       0.1808
     11  C         27.1800   31.1130   21.3850 C.2    12  CYS12       0.2601
     12  O         28.0860   30.5460   21.9920 O.2    12  CYS12      -0.2717
     13  CB        25.4200   29.6730   20.4670 C.3    12  CYS12       0.0970
     14  SG        24.4880   28.9000   19.1110 S.3    12  CYS12      -0.0800
     15  N         26.6150   32.2400   21.8130 N.am   13  LYS13      -0.1979
     16  CA        27.0090   32.8610   23.0760 C.3    13  LYS13       0.1596
     17  C         26.7230   31.8070   24.1450 C.2    13  LYS13       0.2287
     18  O         25.6940   31.1380   24.1070 O.2    13  LYS13      -0.2864
     19  CB        26.1510   34.0990   23.3480 C.3    13  LYS13       0.0298
     20  CG        26.3990   34.7520   24.6950 C.3    13  LYS13       0.0038
     21  CD        25.5180   35.9780   24.9030 C.3    13  LYS13       0.0206
     22  CE        25.7550   36.6130   26.2720 C.3    13  LYS13       0.1093
     23  NZ        24.9030   37.8160   26.4740 N.3    13  LYS13      -0.1314
     24  N         25.4100   30.1340   27.5360 N.3    15  SER15      -0.1217
     25  CA        24.3420   30.4780   28.4770 C.3    15  SER15       0.1889
     26  C         24.8880   31.1190   29.7520 C.2    15  SER15       0.2288
     27  O         24.2930   32.0530   30.2970 O.2    15  SER15      -0.2866
     28  CB        23.5330   29.2380   28.8440 C.3    15  SER15       0.2089
     29  OG        22.3480   29.6130   29.5270 O.3    15  SER15      -0.2183
     30  N         25.6320   35.0740   30.3990 N.3    18  TRP18      -0.1241
     31  CA        24.7010   36.1080   30.8510 C.3    18  TRP18       0.1605
     32  C         24.8170   36.2720   32.3650 C.2    18  TRP18       0.2264
     33  O         25.0670   35.3010   33.0730 O.2    18  TRP18      -0.2867
     34  CB        23.2520   35.7200   30.5450 C.3    18  TRP18       0.0550
     35  CG        22.9210   35.5620   29.1100 C.ar   18  TRP18       0.0003
     36  CD1       23.0760   34.4380   28.3430 C.ar   18  TRP18       0.0946
     37  CD2       22.3570   36.5580   28.2570 C.ar   18  TRP18       0.0152
     38  NE1       22.6360   34.6770   27.0650 N.ar   18  TRP18      -0.2442
     39  CE2       22.1910   35.9730   26.9850 C.ar   18  TRP18       0.0810
     40  CE3       21.9760   37.8960   28.4450 C.ar   18  TRP18       0.0012
     41  CZ2       21.6570   36.6800   25.9000 C.ar   18  TRP18       0.0191
     42  CZ3       21.4460   38.6010   27.3670 C.ar   18  TRP18       0.0001
     43  CH2       21.2920   37.9890   26.1100 C.ar   18  TRP18       0.0015
     44  N         23.2240   34.0740   36.3100 N.3    21  LYS21      -0.1245
     45  CA        23.1380   32.6300   36.1410 C.3    21  LYS21       0.1561
     46  C         23.7760   31.8790   37.3020 C.2    21  LYS21       0.2260
     47  O         23.8450   30.6510   37.2980 O.2    21  LYS21      -0.2867
     48  CB        23.7960   32.2090   34.8270 C.3    21  LYS21       0.0271
     49  CG        22.9270   32.4440   33.6050 C.3    21  LYS21       0.0035
     50  CD        21.6070   31.7010   33.7300 C.3    21  LYS21       0.0206
     51  CE        20.8410   31.7240   32.4220 C.3    21  LYS21       0.1093
     52  NZ        20.8420   33.0800   31.8380 N.3    21  LYS21      -0.1314
     53  N         23.0350   37.1310   21.4860 N.3    45  SER45      -0.1217
     54  CA        23.7940   36.0000   20.9570 C.3    45  SER45       0.1889
     55  C         23.8550   35.9440   19.4360 C.2    45  SER45       0.2288
     56  O         22.9140   36.3560   18.7510 O.2    45  SER45      -0.2866
     57  CB        23.2060   34.6820   21.4550 C.3    45  SER45       0.2089
     58  OG        23.8590   33.5940   20.8160 O.3    45  SER45      -0.2183
     59  N         23.5530   33.4920   17.8520 N.3    47  CYS47      -0.1221
     60  CA        22.5580   32.5100   17.4540 C.3    47  CYS47       0.1808
     61  C         21.1570   33.0720   17.5850 C.2    47  CYS47       0.2601
     62  O         20.1690   32.3660   17.3810 O.2    47  CYS47      -0.2717
     63  CB        22.7150   31.2310   18.2720 C.3    47  CYS47       0.0970
     64  SG        24.2410   30.3890   17.7700 S.3    47  CYS47      -0.0800
     65  N         21.0900   34.3600   17.9150 N.am   48  GLU48      -0.1979
     66  CA        19.8310   35.0770   18.0530 C.3    48  GLU48       0.1602
     67  C         19.9080   36.2870   17.0990 C.2    48  GLU48       0.2287
     68  O         19.2210   37.2880   17.2920 O.2    48  GLU48      -0.2864
     69  CB        19.6640   35.5480   19.5020 C.3    48  GLU48       0.0415
     70  CG        18.2560   36.0050   19.8780 C.3    48  GLU48       0.1163
     71  CD        17.2870   34.8550   20.0990 C.2    48  GLU48       0.3649
     72  OE1       16.1230   35.1270   20.4680 O.co2  48  GLU48      -0.2457
     73  OE2       17.6750   33.6880   19.9050 O.co2  48  GLU48      -0.2457
     74  N         20.9130   25.5900   36.1940 N.3    81  GLU81      -0.1245
     75  CA        22.1210   26.3290   35.8200 C.3    81  GLU81       0.1567
     76  C         22.8170   26.9720   36.9990 C.2    81  GLU81       0.2260
     77  O         24.0460   27.0140   37.0550 O.2    81  GLU81      -0.2867
     78  CB        21.8120   27.4500   34.8230 C.3    81  GLU81       0.0388
     79  CG        21.1500   27.0390   33.5340 C.3    81  GLU81       0.1160
     80  CD        21.1000   28.1920   32.5440 C.2    81  GLU81       0.3649
     81  OE1       22.0600   28.3540   31.7590 O.co2  81  GLU81      -0.2457
     82  OE2       20.1090   28.9500   32.5660 O.co2  81  GLU81      -0.2457
     83  N         27.9740   26.5640   29.5310 N.3   109  SER109     -0.1202
     84  CA        26.6580   26.6370   28.9270 C.3   109  SER109      0.2020
     85  C         25.7960   25.4820   29.4190 C.2   109  SER109      0.2619
     86  O         26.2420   24.6530   30.2180 O.2   109  SER109     -0.2717
     87  CB        26.7740   26.6160   27.3950 C.3   109  SER109      0.2103
     88  OG        25.6050   27.1560   26.7840 O.3   109  SER109     -0.2182
     89  N         24.5630   25.4270   28.9350 N.am  110  THR110     -0.1952
     90  CA        23.6350   24.3880   29.3510 C.3   110  THR110      0.1897
     91  C         23.1330   23.5540   28.1880 C.2   110  THR110      0.2313
     92  O         22.8070   24.0870   27.1300 O.2   110  THR110     -0.2863
     93  CB        22.4260   25.0060   30.0650 C.3   110  THR110      0.1794
     94  OG1       22.8710   25.6680   31.2540 O.3   110  THR110     -0.2208
     95  CG2       21.4060   23.9340   30.4240 C.3   110  THR110      0.0378
     96  N         21.6900   24.2960   17.2020 N.3   131  PHE131     -0.1241
     97  CA        21.8310   25.6550   16.6820 C.3   131  PHE131      0.1605
     98  C         23.0950   25.8340   15.8560 C.2   131  PHE131      0.2264
     99  O         24.0780   25.1230   16.0550 O.2   131  PHE131     -0.2867
    100  CB        21.8660   26.6550   17.8400 C.3   131  PHE131      0.0534
    101  CG        20.7950   26.4300   18.8700 C.ar  131  PHE131     -0.0203
    102  CD1       21.1330   26.1210   20.1850 C.ar  131  PHE131     -0.0042
    103  CD2       19.4460   26.5630   18.5350 C.ar  131  PHE131     -0.0042
    104  CE1       20.1410   25.9520   21.1540 C.ar  131  PHE131     -0.0003
    105  CE2       18.4520   26.3950   19.4980 C.ar  131  PHE131     -0.0003
    106  CZ        18.8040   26.0900   20.8100 C.ar  131  PHE131     -0.0000
@<TRIPOS>BOND
     1    98    99    2
     2    98    97    1
     3    97    96    1
     4    97   100    1
     5     4     3    2
     6    67    68    2
     7    67    66    1
     8     3     2    1
     9    62    61    2
    10    60    61    1
    11    60    59    1
    12    60    63    1
    13     2     5    1
    14     2     1    1
    15    61    65   am
    16    64    63    1
    17    64    14    1
    18   100   101    1
    19    65    66    1
    20     5     6    1
    21    66    69    1
    22   103   101   ar
    23   103   105   ar
    24    56    55    2
    25   101   102   ar
    26    14    13    1
    27     9    10    1
    28     6     7   ar
    29     6     8   ar
    30    55    54    1
    31   105   106   ar
    32    69    70    1
    33    70    71    1
    34    73    71   ar
    35    10    13    1
    36    10    11    1
    37    71    72   ar
    38   102   104   ar
    39   106   104   ar
    40    58    57    1
    41    54    57    1
    42    54    53    1
    43    11    15   am
    44    11    12    2
    45    15    16    1
    46    16    19    1
    47    16    17    1
    48    19    20    1
    49    18    17    2
    50    20    21    1
    51    21    22    1
    52    41    43   ar
    53    41    39   ar
    54    43    42   ar
    55    22    23    1
    56    88    87    1
    57    39    38   ar
    58    39    37   ar
    59    38    36   ar
    60    92    91    2
    61    42    40   ar
    62    87    84    1
    63    24    25    1
    64    91    90    1
    65    37    40   ar
    66    37    35   ar
    67    36    35   ar
    68    25    28    1
    69    25    26    1
    70    28    29    1
    71    84    85    1
    72    84    83    1
    73    89    90    1
    74    89    85   am
    75    35    34    1
    76    90    93    1
    77    85    86    2
    78    26    27    2
    79    93    95    1
    80    93    94    1
    81    30    31    1
    82    34    31    1
    83    31    32    1
    84    81    80   ar
    85    52    51    1
    86    32    33    2
    87    51    50    1
    88    80    82   ar
    89    80    79    1
    90    79    78    1
    91    49    50    1
    92    49    48    1
    93    78    75    1
    94    48    45    1
    95    75    74    1
    96    75    76    1
    97    45    44    1
    98    45    46    1
    99    76    77    2
   100    47    46    2
