@<TRIPOS>MOLECULE
tmp/1oadB01.pdb
 147 139 0 0 0
SMALL
GASTEIGER

@<TRIPOS>ATOM
      1  N         75.9180   66.0780   22.2820 N.3    15  TRP15      -0.1241
      2  CA        75.4290   65.2660   21.1840 C.3    15  TRP15       0.1605
      3  C         74.8150   66.1060   20.0690 C.2    15  TRP15       0.2264
      4  O         74.3460   65.4670   19.1170 O.2    15  TRP15      -0.2867
      5  CB        74.4180   64.2320   21.7090 C.3    15  TRP15       0.0550
      6  CG        73.1680   64.8610   22.2510 C.ar   15  TRP15       0.0003
      7  CD1       72.0570   65.1380   21.5100 C.ar   15  TRP15       0.0946
      8  CD2       72.8910   65.3740   23.5630 C.ar   15  TRP15       0.0152
      9  NE1       71.0750   65.7770   22.2470 N.ar   15  TRP15      -0.2442
     10  CE2       71.6330   65.9300   23.5380 C.ar   15  TRP15       0.0810
     11  CE3       73.6780   65.4090   24.7330 C.ar   15  TRP15       0.0012
     12  CZ2       70.9770   66.5090   24.6390 C.ar   15  TRP15       0.0191
     13  CZ3       73.0380   66.0000   25.8370 C.ar   15  TRP15       0.0001
     14  CH2       71.7660   66.5100   25.7800 C.ar   15  TRP15       0.0015
     15  N         75.1460   63.0000   27.7920 N.3    53  HIS53      -0.1241
     16  CA        74.8110   61.6400   28.2730 C.3    53  HIS53       0.1621
     17  C         76.1300   61.0550   28.6990 C.2    53  HIS53       0.2264
     18  O         77.1980   61.3020   28.1450 O.2    53  HIS53      -0.2867
     19  CB        74.3600   60.7390   27.0970 C.3    53  HIS53       0.0745
     20  CG        73.1210   61.1790   26.3990 C.ar   53  HIS53       0.0817
     21  ND1       73.2080   62.1670   25.3890 N.ar   53  HIS53      -0.2268
     22  CD2       71.8270   60.9010   26.4680 C.ar   53  HIS53       0.1154
     23  CE1       71.9790   62.3800   24.9570 C.ar   53  HIS53       0.1986
     24  NE2       71.0730   61.6440   25.5850 N.ar   53  HIS53      -0.2212
     25  N         73.3480   70.2030   33.5230 N.3    87  MET87      -0.1245
     26  CA        72.4530   69.0590   33.3690 C.3    87  MET87       0.1570
     27  C         73.2160   67.9120   32.7260 C.2    87  MET87       0.2261
     28  O         74.1610   68.0960   31.9900 O.2    87  MET87      -0.2867
     29  CB        71.2670   69.4540   32.4530 C.3    87  MET87       0.0387
     30  CG        70.2100   68.3710   32.2290 C.3    87  MET87       0.0595
     31  SD        70.6110   67.2570   30.8460 S.3    87  MET87      -0.1393
     32  CE        69.9460   68.2400   29.4930 C.3    87  MET87       0.0692
     33  N         72.4850   63.3950   31.7260 N.3    89  THR89      -0.1203
     34  CA        71.5170   62.3360   31.4650 C.3    89  THR89       0.1994
     35  C         72.2650   61.0210   31.1020 C.2    89  THR89       0.2618
     36  O         73.4830   60.9950   30.9630 O.2    89  THR89      -0.2717
     37  CB        70.5700   62.8230   30.3380 C.3    89  THR89       0.1784
     38  OG1       69.4980   61.9270   30.1320 O.3    89  THR89      -0.2211
     39  CG2       71.3120   62.9610   29.0130 C.3    89  THR89       0.0376
     40  N         71.4160   59.9700   31.0720 N.am   90  THR90      -0.1952
     41  CA        71.9780   58.6430   30.7760 C.3    90  THR90       0.1897
     42  C         71.5350   58.2300   29.3270 C.2    90  THR90       0.2313
     43  O         70.3770   58.4470   29.0180 O.2    90  THR90      -0.2863
     44  CB        71.3230   57.5800   31.6540 C.3    90  THR90       0.1794
     45  OG1       71.0150   58.1170   32.9870 O.3    90  THR90      -0.2208
     46  CG2       72.2320   56.3720   31.9150 C.3    90  THR90       0.0378
     47  N         69.2880   54.1970   25.4320 N.3    93  PHE93      -0.1298
     48  CA        68.5360   53.9570   24.1670 C.3    93  PHE93       0.1290
     49  C         69.4890   53.5240   23.0180 C.3    93  PHE93       0.2013
     50  O         68.8770   52.8460   22.1510 O.3    93  PHE93      -0.2188
     51  CB        67.7430   55.2350   23.7480 C.3    93  PHE93       0.0480
     52  CG        68.6060   56.4430   23.7280 C.ar   93  PHE93      -0.0206
     53  CD1       69.3870   56.8390   22.6600 C.ar   93  PHE93      -0.0042
     54  CD2       68.6070   57.3230   24.8530 C.ar   93  PHE93      -0.0042
     55  CE1       70.1720   57.9570   22.6870 C.ar   93  PHE93      -0.0003
     56  CE2       69.4100   58.4530   24.8810 C.ar   93  PHE93      -0.0003
     57  CZ        70.2060   58.8110   23.8140 C.ar   93  PHE93      -0.0000
     58  N         68.3560   64.6050   33.6840 N.3   134  VAL134     -0.1245
     59  CA        67.1880   64.3080   32.8290 C.3   134  VAL134      0.1561
     60  C         67.0220   62.7880   32.5200 C.2   134  VAL134      0.2260
     61  O         68.0730   62.1530   32.3810 O.2   134  VAL134     -0.2867
     62  CB        67.3930   65.0860   31.5270 C.3   134  VAL134      0.0252
     63  CG1       66.5050   64.6100   30.3440 C.3   134  VAL134      0.0019
     64  CG2       67.1130   66.5870   31.7080 C.3   134  VAL134      0.0019
     65  N         65.1000   60.6210   29.5740 N.3   136  TRP136     -0.1298
     66  CA        64.3040   60.5220   28.3410 C.3   136  TRP136      0.1291
     67  C         64.0820   58.9890   28.0810 C.3   136  TRP136      0.2013
     68  O         65.0750   58.3850   27.6490 O.3   136  TRP136     -0.2188
     69  CB        65.0530   61.1740   27.1630 C.3   136  TRP136      0.0497
     70  CG        64.2740   60.9270   25.8730 C.ar  136  TRP136     -0.0001
     71  CD1       63.0150   61.3080   25.6070 C.ar  136  TRP136      0.0946
     72  CD2       64.8090   60.2040   24.7240 C.ar  136  TRP136      0.0152
     73  NE1       62.6740   60.8800   24.3110 N.ar  136  TRP136     -0.2442
     74  CE2       63.7440   60.2540   23.7990 C.ar  136  TRP136      0.0810
     75  CE3       66.0170   59.6130   24.4400 C.ar  136  TRP136      0.0012
     76  CZ2       63.9040   59.6470   22.5230 C.ar  136  TRP136      0.0191
     77  CZ3       66.1620   59.0290   23.1670 C.ar  136  TRP136      0.0001
     78  CH2       65.0960   59.0870   22.2550 C.ar  136  TRP136      0.0015
     79  N         61.8200   63.9950   30.3620 N.3   180  GLU180     -0.1245
     80  CA        61.6210   64.6520   29.0320 C.3   180  GLU180      0.1567
     81  C         60.6470   63.8320   28.2000 C.2   180  GLU180      0.2260
     82  O         61.0560   62.7160   27.7580 O.2   180  GLU180     -0.2867
     83  CB        62.9840   64.7120   28.3240 C.3   180  GLU180      0.0388
     84  CG        62.8230   65.2610   26.8580 C.3   180  GLU180      0.1160
     85  CD        64.1660   65.6460   26.4030 C.2   180  GLU180      0.3649
     86  OE1       65.2270   65.7930   27.0640 O.co2 180  GLU180     -0.2457
     87  OE2       64.3050   65.8740   25.1290 O.co2 180  GLU180     -0.2457
     88  N         58.2310   62.4300   25.0870 N.3   182  LYS182     -0.1245
     89  CA        58.2720   62.3820   23.5850 C.3   182  LYS182      0.1561
     90  C         57.1460   61.4600   23.2260 C.2   182  LYS182      0.2260
     91  O         57.0430   60.4100   23.9370 O.2   182  LYS182     -0.2867
     92  CB        59.5910   61.8530   23.0640 C.3   182  LYS182      0.0271
     93  CG        59.7080   62.0550   21.5010 C.3   182  LYS182      0.0035
     94  CD        61.0760   61.5550   21.0710 C.3   182  LYS182      0.0206
     95  CE        61.2250   61.8330   19.5330 C.3   182  LYS182      0.1093
     96  NZ        62.4660   61.2190   18.9880 N.3   182  LYS182     -0.1314
     97  N         60.5040   69.4560   25.5180 N.3   216  GLU216     -0.1245
     98  CA        61.2200   69.8250   24.2690 C.3   216  GLU216      0.1567
     99  C         60.1920   70.2750   23.2280 C.2   216  GLU216      0.2260
    100  O         59.1590   69.6710   22.9830 O.2   216  GLU216     -0.2867
    101  CB        61.9800   68.5930   23.7180 C.3   216  GLU216      0.0388
    102  CG        62.6850   68.9740   22.4150 C.3   216  GLU216      0.1160
    103  CD        63.4930   67.8230   21.8590 C.2   216  GLU216      0.3649
    104  OE1       64.3270   67.1990   22.5110 O.co2 216  GLU216     -0.2457
    105  OE2       63.2620   67.5550   20.6140 O.co2 216  GLU216     -0.2457
    106  N         59.0600   67.9210   20.5870 N.3   219  HIS219     -0.1241
    107  CA        58.3310   66.6840   20.9630 C.3   219  HIS219      0.1621
    108  C         56.9030   66.8990   21.2060 C.2   219  HIS219      0.2264
    109  O         55.9800   66.1910   20.8090 O.2   219  HIS219     -0.2867
    110  CB        58.9610   66.1350   22.2800 C.3   219  HIS219      0.0745
    111  CG        60.3100   65.6020   21.9990 C.ar  219  HIS219      0.0817
    112  ND1       61.1790   65.0660   22.9460 N.ar  219  HIS219     -0.2268
    113  CD2       61.0600   65.4910   20.8020 C.ar  219  HIS219      0.1154
    114  CE1       62.3150   64.7160   22.4730 C.ar  219  HIS219      0.1986
    115  NE2       62.2860   64.9520   21.1020 N.ar  219  HIS219     -0.2212
    116  N         64.0780   72.3700   26.8470 N.3   244  ASP244     -0.1239
    117  CA        64.8480   71.9630   25.6650 C.3   244  ASP244      0.1674
    118  C         64.2250   72.6270   24.4010 C.2   244  ASP244      0.2266
    119  O         63.0760   72.4770   24.0600 O.2   244  ASP244     -0.2867
    120  CB        64.4730   70.4910   25.6890 C.3   244  ASP244      0.1410
    121  CG        65.5970   69.5510   25.5310 C.2   244  ASP244      0.3668
    122  OD1       66.5780   69.6360   26.2860 O.co2 244  ASP244     -0.2456
    123  OD2       65.4290   68.7150   24.6170 O.co2 244  ASP244     -0.2456
    124  N         61.1580   63.3820   14.4400 N.3   254  ASP254     -0.1239
    125  CA        61.7420   64.4930   15.2810 C.3   254  ASP254      0.1674
    126  C         62.9000   65.0790   14.4940 C.2   254  ASP254      0.2266
    127  O         63.9680   64.5310   14.3650 O.2   254  ASP254     -0.2867
    128  CB        62.2200   63.7890   16.5680 C.3   254  ASP254      0.1410
    129  CG        62.8440   64.6330   17.6850 C.2   254  ASP254      0.3668
    130  OD1       62.3390   65.7290   17.8610 O.co2 254  ASP254     -0.2456
    131  OD2       63.7670   64.1520   18.3400 O.co2 254  ASP254     -0.2456
    132  N         64.4990   68.1820   15.2740 N.3   256  ASP256     -0.1239
    133  CA        65.5420   68.8670   16.0350 C.3   256  ASP256      0.1674
    134  C         66.2170   70.0370   15.2180 C.2   256  ASP256      0.2266
    135  O         67.4220   70.1620   15.2520 O.2   256  ASP256     -0.2867
    136  CB        66.5470   67.8640   16.6160 C.3   256  ASP256      0.1410
    137  CG        65.9750   66.9200   17.7060 C.2   256  ASP256      0.3668
    138  OD1       64.8920   67.0520   18.2530 O.co2 256  ASP256     -0.2456
    139  OD2       66.7750   65.9500   17.9680 O.co2 256  ASP256     -0.2456
    140  N         68.5530   71.4070   22.2140 N.3   286  ASP286     -0.1239
    141  CA        68.6770   69.9930   21.8200 C.3   286  ASP286      0.1674
    142  C         68.3700   69.9570   20.2980 C.2   286  ASP286      0.2266
    143  O         67.2050   69.8780   19.9960 O.2   286  ASP286     -0.2867
    144  CB        67.7290   69.0890   22.6140 C.3   286  ASP286      0.1410
    145  CG        67.9230   67.6130   22.1860 C.2   286  ASP286      0.3668
    146  OD1       68.8810   67.3560   21.4600 O.co2 286  ASP286     -0.2456
    147  OD2       67.0770   66.7930   22.6190 O.co2 286  ASP286     -0.2456
@<TRIPOS>BOND
     1   127   126    2
     2   124   125    1
     3   126   125    1
     4   134   135    2
     5   134   133    1
     6   132   133    1
     7   125   128    1
     8   133   136    1
     9   128   129    1
    10   136   137    1
    11   129   130   ar
    12   129   131   ar
    13   137   139   ar
    14   137   138   ar
    15    96    95    1
    16     4     3    2
    17    95    94    1
    18   143   142    2
    19     3     2    1
    20   142   141    1
    21   106   107    1
    22   105   103   ar
    23   113   115   ar
    24   113   111   ar
    25   109   108    2
    26   107   108    1
    27   107   110    1
    28    94    93    1
    29   115   114   ar
    30     2     5    1
    31     2     1    1
    32   146   145   ar
    33    93    92    1
    34     7     9   ar
    35     7     6   ar
    36     5     6    1
    37   141   140    1
    38   141   144    1
    39   103   102    1
    40   103   104   ar
    41   111   110    1
    42   111   112   ar
    43    50    49    1
    44   145   144    1
    45   145   147   ar
    46     9    10   ar
    47     6     8   ar
    48    78    76   ar
    49    78    77   ar
    50   102   101    1
    51   114   112   ar
    52    76    74   ar
    53    53    55   ar
    54    53    52   ar
    55    55    57   ar
    56   100    99    2
    57    49    48    1
    58    92    89    1
    59    77    75   ar
    60    90    89    1
    61    90    91    2
    62    99    98    1
    63    10     8   ar
    64    10    12   ar
    65     8    11   ar
    66    89    88    1
    67   101    98    1
    68    52    51    1
    69    52    54   ar
    70    51    48    1
    71    74    73   ar
    72    74    72   ar
    73    57    56   ar
    74   119   118    2
    75    48    47    1
    76    98    97    1
    77    73    71   ar
    78   118   117    1
    79    75    72   ar
    80   123   121   ar
    81    12    14   ar
    82    72    70   ar
    83    11    13   ar
    84    54    56   ar
    85    23    21   ar
    86    23    24   ar
    87    87    85   ar
    88    21    20   ar
    89   121   120    1
    90   121   122   ar
    91    24    22   ar
    92    71    70   ar
    93   117   120    1
    94   117   116    1
    95    14    13   ar
    96    70    69    1
    97    20    22   ar
    98    20    19    1
    99    85    84    1
   100    85    86   ar
   101    84    83    1
   102    19    16    1
   103    69    66    1
   104    68    67    1
   105    82    81    2
   106    15    16    1
   107    67    66    1
   108    18    17    2
   109    81    80    1
   110    16    17    1
   111    83    80    1
   112    66    65    1
   113    39    37    1
   114    43    42    2
   115    80    79    1
   116    42    41    1
   117    32    31    1
   118    38    37    1
   119    37    34    1
   120    63    62    1
   121    41    40    1
   122    41    44    1
   123    31    30    1
   124    36    35    2
   125    40    35   am
   126    35    34    1
   127    34    33    1
   128    62    64    1
   129    62    59    1
   130    44    46    1
   131    44    45    1
   132    28    27    2
   133    30    29    1
   134    61    60    2
   135    29    26    1
   136    60    59    1
   137    27    26    1
   138    59    58    1
   139    26    25    1
