@<TRIPOS>MOLECULE
tmp/1oahB02.pdb
 233 222 0 0 0
SMALL
GASTEIGER

@<TRIPOS>ATOM
      1  N         35.9820   -3.2780  119.6890 N.3    10  MET10      -0.1245
      2  CA        36.1680   -4.3790  118.7740 C.3    10  MET10       0.1570
      3  C         36.1840   -5.6870  119.5550 C.2    10  MET10       0.2261
      4  O         35.5650   -6.6750  119.1530 O.2    10  MET10      -0.2867
      5  CB        37.5050   -4.1880  118.0770 C.3    10  MET10       0.0387
      6  CG        37.6210   -4.8790  116.7630 C.3    10  MET10       0.0595
      7  SD        38.4220   -3.7890  115.5870 S.3    10  MET10      -0.1393
      8  CE        40.0030   -3.6440  116.3050 C.3    10  MET10       0.0692
      9  N         33.2370   -8.1210  120.2020 N.3    13  PHE13      -0.1241
     10  CA        32.7170   -8.9720  119.1410 C.3    13  PHE13       0.1605
     11  C         33.4950  -10.2640  118.9660 C.2    13  PHE13       0.2264
     12  O         33.0410  -11.1740  118.2860 O.2    13  PHE13      -0.2867
     13  CB        32.7730   -8.2270  117.8120 C.3    13  PHE13       0.0534
     14  CG        31.8440   -7.0710  117.7240 C.ar   13  PHE13      -0.0203
     15  CD1       32.2040   -5.8400  118.2420 C.ar   13  PHE13      -0.0042
     16  CD2       30.6130   -7.2110  117.1060 C.ar   13  PHE13      -0.0042
     17  CE1       31.3460   -4.7590  118.1440 C.ar   13  PHE13      -0.0003
     18  CE2       29.7460   -6.1420  117.0060 C.ar   13  PHE13      -0.0003
     19  CZ        30.1100   -4.9100  117.5300 C.ar   13  PHE13      -0.0000
     20  N         32.0660  -13.7640  117.3200 N.3    17  PHE17      -0.1241
     21  CA        32.4550  -13.8080  115.9190 C.3    17  PHE17       0.1605
     22  C         33.9650  -13.9800  115.7450 C.2    17  PHE17       0.2264
     23  O         34.6390  -13.1040  115.2110 O.2    17  PHE17      -0.2867
     24  CB        31.9450  -12.5550  115.2110 C.3    17  PHE17       0.0534
     25  CG        30.4530  -12.3900  115.3080 C.ar   17  PHE17      -0.0203
     26  CD1       29.8910  -11.5360  116.2460 C.ar   17  PHE17      -0.0042
     27  CD2       29.6160  -13.1270  114.4840 C.ar   17  PHE17      -0.0042
     28  CE1       28.5150  -11.4070  116.3510 C.ar   17  PHE17      -0.0003
     29  CE2       28.2350  -13.0100  114.5810 C.ar   17  PHE17      -0.0003
     30  CZ        27.6820  -12.1470  115.5190 C.ar   17  PHE17      -0.0000
     31  N         35.3370  -13.7810  111.8050 N.3    20  GLN20      -0.1231
     32  CA        35.4390  -12.4620  111.2120 C.3    20  GLN20       0.1698
     33  C         36.4490  -11.6300  111.9920 C.2    20  GLN20       0.2592
     34  O         37.2030  -10.8570  111.4140 O.2    20  GLN20      -0.2718
     35  CB        34.0770  -11.7850  111.1460 C.3    20  GLN20       0.0381
     36  CG        33.1390  -12.4060  110.1220 C.3    20  GLN20       0.0905
     37  CD        32.4900  -13.6950  110.6060 C.2    20  GLN20       0.2608
     38  OE1       32.5700  -14.0410  111.7850 O.2    20  GLN20      -0.2717
     39  NE2       31.8340  -14.3970  109.6970 N.am   20  GLN20      -0.0878
     40  N         36.4960  -11.8210  113.3040 N.am   21  TYR21      -0.1976
     41  CA        37.4470  -11.0860  114.1220 C.3    21  TYR21       0.1639
     42  C         38.8980  -11.4170  113.7700 C.2    21  TYR21       0.2290
     43  O         39.7250  -10.5250  113.6130 O.2    21  TYR21      -0.2864
     44  CB        37.1930  -11.3310  115.6110 C.3    21  TYR21       0.0560
     45  CG        38.0980  -10.5390  116.5320 C.ar   21  TYR21      -0.0198
     46  CD1       37.6880   -9.3270  117.0620 C.ar   21  TYR21      -0.0009
     47  CD2       39.3590  -11.0150  116.8740 C.ar   21  TYR21      -0.0009
     48  CE1       38.5090   -8.6040  117.9100 C.ar   21  TYR21       0.0417
     49  CE2       40.1850  -10.3110  117.7140 C.ar   21  TYR21       0.0417
     50  CZ        39.7620   -9.1090  118.2340 C.ar   21  TYR21       0.1957
     51  OH        40.6030   -8.4230  119.0730 O.3    21  TYR21      -0.2866
     52  N         39.7060   -9.8740  110.5160 N.3    24  TYR24      -0.1241
     53  CA        39.9180   -8.4490  110.6630 C.3    24  TYR24       0.1605
     54  C         41.2900   -8.1820  111.2850 C.2    24  TYR24       0.2264
     55  O         41.9160   -7.1590  111.0090 O.2    24  TYR24      -0.2867
     56  CB        38.8110   -7.8370  111.5180 C.3    24  TYR24       0.0534
     57  CG        38.6380   -6.3400  111.3680 C.ar   24  TYR24      -0.0201
     58  CD1       38.1400   -5.7930  110.1930 C.ar   24  TYR24      -0.0009
     59  CD2       38.9490   -5.4810  112.4140 C.ar   24  TYR24      -0.0009
     60  CE1       37.9640   -4.4380  110.0520 C.ar   24  TYR24       0.0417
     61  CE2       38.7860   -4.1240  112.2880 C.ar   24  TYR24       0.0417
     62  CZ        38.2820   -3.6000  111.0990 C.ar   24  TYR24       0.1957
     63  OH        38.1060   -2.2410  110.9640 O.3    24  TYR24      -0.2866
     64  N         42.8270   -1.0060  108.7460 N.3    81  HIS81      -0.1241
     65  CA        41.9150   -0.3030  109.6660 C.3    81  HIS81       0.1621
     66  C         42.3110   -0.3610  111.1520 C.2    81  HIS81       0.2264
     67  O         42.0410    0.5660  111.9150 O.2    81  HIS81      -0.2867
     68  CB        40.4700   -0.7920  109.4880 C.3    81  HIS81       0.0745
     69  CG        39.8990   -0.5140  108.1280 C.ar   81  HIS81       0.0817
     70  ND1       39.0200   -1.3700  107.5060 N.ar   81  HIS81      -0.2268
     71  CD2       40.0950    0.5110  107.2650 C.ar   81  HIS81       0.1154
     72  CE1       38.6970   -0.8930  106.3190 C.ar   81  HIS81       0.1986
     73  NE2       39.3400    0.2450  106.1450 N.ar   81  HIS81      -0.2212
     74  N         38.7060    1.9370  113.9410 N.3   149  ILE149     -0.1231
     75  CA        37.7150    1.4410  112.9920 C.3   149  ILE149      0.1692
     76  C         37.4200   -0.0360  113.2350 C.2   149  ILE149      0.2593
     77  O         38.3280   -0.8620  113.1730 O.2   149  ILE149     -0.2718
     78  CB        38.2260    1.6300  111.5540 C.3   149  ILE149      0.0266
     79  CG1       38.4770    3.1160  111.2620 C.3   149  ILE149      0.0019
     80  CG2       37.2530    1.0090  110.5660 C.3   149  ILE149      0.0020
     81  CD1       39.2030    3.3460  109.9510 C.3   149  ILE149      0.0001
     82  N         36.1580   -0.3620  113.4960 N.am  150  GLY150     -0.1942
     83  CA        35.7850   -1.7240  113.8140 C.3   150  GLY150      0.2014
     84  C         34.4130   -2.1680  113.3470 C.2   150  GLY150      0.2639
     85  O         33.8170   -1.5680  112.4490 O.2   150  GLY150     -0.2714
     86  N         33.9300   -3.2420  113.9600 N.am  151  CYS151     -0.1967
     87  CA        32.6600   -3.8550  113.6090 C.3   151  CYS151      0.1712
     88  C         31.4680   -2.8920  113.6690 C.2   151  CYS151      0.2296
     89  O         30.6010   -2.9150  112.7920 O.2   151  CYS151     -0.2864
     90  CB        32.3900   -5.0770  114.5020 C.3   151  CYS151      0.0983
     91  SG        33.8660   -5.9550  115.0730 S.3   151  CYS151     -0.0798
     92  N         30.2810   -0.7480  110.5570 N.3   154  CYS154     -0.1221
     93  CA        29.5980   -1.2990  109.3910 C.3   154  CYS154      0.1808
     94  C         28.4500   -2.2280  109.7720 C.2   154  CYS154      0.2601
     95  O         27.6200   -2.5860  108.9240 O.2   154  CYS154     -0.2717
     96  CB        30.5890   -2.0610  108.4970 C.3   154  CYS154      0.0970
     97  SG        32.0570   -1.1620  107.8930 S.3   154  CYS154     -0.0800
     98  N         28.3950   -2.6030  111.0470 N.am  155  HIS155     -0.1975
     99  CA        27.3960   -3.5480  111.5210 C.3   155  HIS155      0.1656
    100  C         26.5190   -3.0390  112.6640 C.2   155  HIS155      0.2291
    101  O         26.9870   -2.3670  113.5740 O.2   155  HIS155     -0.2864
    102  CB        28.0860   -4.8190  112.0290 C.3   155  HIS155      0.0771
    103  CG        28.7260   -5.6410  110.9580 C.ar  155  HIS155      0.0820
    104  ND1       27.9990   -6.4100  110.0750 N.ar  155  HIS155     -0.2267
    105  CD2       30.0290   -5.8430  110.6480 C.ar  155  HIS155      0.1154
    106  CE1       28.8230   -7.0390  109.2580 C.ar  155  HIS155      0.1986
    107  NE2       30.0600   -6.7130  109.5870 N.ar  155  HIS155     -0.2212
    108  N         23.8370   -7.7010  113.4810 N.3   160  MET160     -0.1245
    109  CA        24.9820   -7.8250  112.5840 C.3   160  MET160      0.1570
    110  C         24.6300   -7.4210  111.1540 C.2   160  MET160      0.2261
    111  O         25.4470   -7.5440  110.2530 O.2   160  MET160     -0.2867
    112  CB        25.5960   -9.2260  112.6440 C.3   160  MET160      0.0387
    113  CG        26.3050   -9.4990  113.9600 C.3   160  MET160      0.0595
    114  SD        27.3910   -8.1240  114.4100 S.3   160  MET160     -0.1393
    115  CE        28.8890   -8.6000  113.5730 C.3   160  MET160      0.0692
    116  N         24.1190   -5.0010  108.0020 N.3   162  LEU162     -0.1245
    117  CA        24.9320   -3.8700  107.5820 C.3   162  LEU162      0.1561
    118  C         24.2690   -2.5810  108.0270 C.2   162  LEU162      0.2260
    119  O         23.0600   -2.4170  107.8690 O.2   162  LEU162     -0.2867
    120  CB        25.1110   -3.8670  106.0690 C.3   162  LEU162      0.0270
    121  CG        25.9710   -5.0070  105.5310 C.3   162  LEU162      0.0019
    122  CD1       26.2820   -4.7710  104.0630 C.3   162  LEU162      0.0001
    123  CD2       27.2510   -5.1330  106.3430 C.3   162  LEU162      0.0001
    124  N         21.3220   -5.4900   99.1010 N.3   185  ARG185     -0.1245
    125  CA        22.4670   -5.9950   99.8370 C.3   185  ARG185      0.1563
    126  C         23.6920   -5.5840   99.0340 C.2   185  ARG185      0.2260
    127  O         24.6860   -5.0960   99.5740 O.2   185  ARG185     -0.2867
    128  CB        22.3500   -7.5160   99.9220 C.3   185  ARG185      0.0307
    129  CG        23.3900   -8.2530  100.7570 C.3   185  ARG185      0.0489
    130  CD        22.9900   -9.7090  101.0270 C.3   185  ARG185      0.2205
    131  NE        24.1270  -10.5890  101.2910 N.pl3 185  ARG185     -0.0865
    132  CZ        24.9470  -11.0700  100.3530 C.cat 185  ARG185      0.5346
    133  NH1       24.7660  -10.7620   99.0690 N.pl3 185  ARG185      0.1354
    134  NH2       25.9580  -11.8600  100.7000 N.pl3 185  ARG185      0.1354
    135  N         26.9430   -3.2950  100.1450 N.3   189  ARG189     -0.1245
    136  CA        28.2850   -3.8510  100.1520 C.3   189  ARG189      0.1563
    137  C         29.2980   -2.8470   99.5830 C.2   189  ARG189      0.2260
    138  O         30.5140   -3.0600   99.6520 O.2   189  ARG189     -0.2867
    139  CB        28.3320   -5.1900   99.4100 C.3   189  ARG189      0.0307
    140  CG        27.8110   -6.3540  100.2520 C.3   189  ARG189      0.0489
    141  CD        27.3310   -7.5550   99.4400 C.3   189  ARG189      0.2205
    142  NE        28.3900   -8.0890   98.5960 N.pl3 189  ARG189     -0.0865
    143  CZ        29.4040   -8.8200   99.0510 C.cat 189  ARG189      0.5346
    144  NH1       29.4830   -9.1130  100.3470 N.pl3 189  ARG189      0.1354
    145  NH2       30.3410   -9.2560   98.2150 N.pl3 189  ARG189      0.1354
    146  N         28.9680    0.8870  102.7330 N.3   192  VAL192     -0.1231
    147  CA        29.6970    0.8640  103.9950 C.3   192  VAL192      0.1692
    148  C         31.0980    1.4330  103.8330 C.2   192  VAL192      0.2592
    149  O         31.6060    2.0620  104.7510 O.2   192  VAL192     -0.2718
    150  CB        29.7590   -0.5410  104.6810 C.3   192  VAL192      0.0266
    151  CG1       28.3950   -0.9230  105.2690 C.3   192  VAL192      0.0020
    152  CG2       30.2630   -1.6130  103.7360 C.3   192  VAL192      0.0020
    153  N         31.7140    1.2350  102.6680 N.am  193  CYS193     -0.1970
    154  CA        33.0290    1.7970  102.4240 C.3   193  CYS193      0.1712
    155  C         32.8730    3.2480  102.0470 C.2   193  CYS193      0.2296
    156  O         33.7130    4.0730  102.3820 O.2   193  CYS193     -0.2864
    157  CB        33.7760    1.0730  101.2980 C.3   193  CYS193      0.0983
    158  SG        33.6440   -0.7050  101.3200 S.3   193  CYS193     -0.0798
    159  N         33.1290   -4.7750   98.2250 N.3   281  ALA281     -0.1245
    160  CA        33.2710   -6.0370   98.9510 C.3   281  ALA281      0.1562
    161  C         33.5720   -7.2290   98.0380 C.2   281  ALA281      0.2260
    162  O         34.2470   -8.1710   98.4600 O.2   281  ALA281     -0.2867
    163  CB        32.0410   -6.3090   99.8030 C.3   281  ALA281      0.0290
    164  N         36.5640   -8.0380   99.9250 N.3   285  MET285     -0.1245
    165  CA        36.0870   -8.9080  100.9970 C.3   285  MET285      0.1570
    166  C         35.5930  -10.2430  100.4280 C.2   285  MET285      0.2261
    167  O         34.4580  -10.6440  100.6820 O.2   285  MET285     -0.2867
    168  CB        34.9780   -8.2180  101.8090 C.3   285  MET285      0.0387
    169  CG        35.4460   -7.0040  102.5860 C.3   285  MET285      0.0595
    170  SD        34.2580   -6.2740  103.7620 S.3   285  MET285     -0.1393
    171  CE        33.9120   -7.6370  104.9120 C.3   285  MET285      0.0692
    172  N         34.8300  -14.1460   99.5260 N.3   287  TYR287     -0.1241
    173  CA        34.4450  -15.2750  100.3650 C.3   287  TYR287      0.1605
    174  C         35.6470  -16.1980  100.4700 C.2   287  TYR287      0.2264
    175  O         36.3200  -16.4730   99.4750 O.2   287  TYR287     -0.2867
    176  CB        33.2300  -15.9920   99.8010 C.3   287  TYR287      0.0534
    177  CG        32.0470  -15.0780   99.7830 C.ar  287  TYR287     -0.0201
    178  CD1       31.4250  -14.7110  100.9670 C.ar  287  TYR287     -0.0009
    179  CD2       31.5880  -14.5240   98.5940 C.ar  287  TYR287     -0.0009
    180  CE1       30.3560  -13.8480  100.9680 C.ar  287  TYR287      0.0417
    181  CE2       30.5140  -13.6510   98.5820 C.ar  287  TYR287      0.0417
    182  CZ        29.9030  -13.3190   99.7780 C.ar  287  TYR287      0.1957
    183  OH        28.8310  -12.4550   99.7890 O.3   287  TYR287     -0.2866
    184  N         34.3550  -23.5230  107.3430 N.3   293  LYS293     -0.1231
    185  CA        33.3460  -22.7940  106.5710 C.3   293  LYS293      0.1693
    186  C         33.6870  -21.4860  105.8360 C.2   293  LYS293      0.2592
    187  O         34.7570  -20.8930  105.9990 O.2   293  LYS293     -0.2718
    188  CB        32.1520  -22.5200  107.4670 C.3   293  LYS293      0.0285
    189  CG        32.3450  -21.3150  108.3540 C.3   293  LYS293      0.0035
    190  CD        31.0050  -20.8770  108.8870 C.3   293  LYS293      0.0206
    191  CE        30.9090  -19.3770  108.9940 C.3   293  LYS293      0.1093
    192  NZ        29.4740  -18.9780  109.0230 N.3   293  LYS293     -0.1314
    193  N         32.6890  -21.0300  105.0780 N.am  294  LYS294     -0.1966
    194  CA        32.7500  -19.8680  104.1870 C.3   294  LYS294      0.1728
    195  C         32.4110  -18.4930  104.8160 C.2   294  LYS294      0.2616
    196  O         31.2500  -18.1660  105.0500 O.2   294  LYS294     -0.2715
    197  CB        31.8120  -20.1330  103.0060 C.3   294  LYS294      0.0311
    198  CG        31.7460  -19.0300  101.9510 C.3   294  LYS294      0.0038
    199  CD        30.6890  -19.3540  100.8830 C.3   294  LYS294      0.0206
    200  CE        29.2600  -19.2380  101.4330 C.3   294  LYS294      0.1093
    201  NZ        28.2180  -19.5530  100.3960 N.3   294  LYS294     -0.1314
    202  N         33.4230  -17.6690  105.0500 N.am  295  ILE295     -0.1963
    203  CA        33.1880  -16.3620  105.6540 C.3   295  ILE295      0.1727
    204  C         33.5060  -15.2100  104.7010 C.2   295  ILE295      0.2616
    205  O         34.1790  -15.4090  103.6930 O.2   295  ILE295     -0.2715
    206  CB        34.0590  -16.2130  106.9140 C.3   295  ILE295      0.0290
    207  CG1       35.5400  -16.3140  106.5470 C.3   295  ILE295      0.0022
    208  CG2       33.7010  -17.2600  107.9470 C.3   295  ILE295      0.0023
    209  CD1       36.4540  -15.5590  107.4900 C.3   295  ILE295      0.0001
    210  N         33.0280  -14.0070  105.0100 N.am  296  SER296     -0.1950
    211  CA        33.4670  -12.8550  104.2380 C.3   296  SER296      0.1924
    212  C         34.8100  -12.5100  104.8360 C.2   296  SER296      0.2314
    213  O         34.9000  -12.2290  106.0330 O.2   296  SER296     -0.2863
    214  CB        32.5410  -11.6500  104.3970 C.3   296  SER296      0.2116
    215  OG        31.2720  -11.8660  103.8090 O.3   296  SER296     -0.2180
    216  N         37.6280  -10.4530  106.1570 N.3   298  HIS298     -0.1241
    217  CA        37.6030   -9.0900  106.6460 C.3   298  HIS298      0.1621
    218  C         38.9750   -8.4740  106.5720 C.2   298  HIS298      0.2264
    219  O         39.2450   -7.4750  107.2290 O.2   298  HIS298     -0.2867
    220  CB        37.0260   -9.0000  108.0550 C.3   298  HIS298      0.0745
    221  CG        35.5360   -8.9960  108.0760 C.ar  298  HIS298      0.0817
    222  ND1       34.7830  -10.0210  107.5420 N.ar  298  HIS298     -0.2268
    223  CD2       34.6550   -8.0770  108.5310 C.ar  298  HIS298      0.1154
    224  CE1       33.5010   -9.7340  107.6800 C.ar  298  HIS298      0.1986
    225  NE2       33.3990   -8.5660  108.2830 N.ar  298  HIS298     -0.2212
    226  N         40.9190   -6.2040  104.7620 N.3   300  MET300     -0.1245
    227  CA        40.6980   -5.1500  103.7660 C.3   300  MET300      0.1570
    228  C         42.0380   -4.5100  103.3710 C.2   300  MET300      0.2261
    229  O         42.5960   -3.6850  104.0840 O.2   300  MET300     -0.2867
    230  CB        39.6860   -4.1500  104.3130 C.3   300  MET300      0.0387
    231  CG        38.4960   -4.8710  104.9580 C.3   300  MET300      0.0595
    232  SD        37.3260   -3.8450  105.8550 S.3   300  MET300     -0.1393
    233  CE        36.2460   -5.1010  106.5660 C.3   300  MET300      0.0692
@<TRIPOS>BOND
     1   161   162    2
     2   161   160    1
     3   145   143    1
     4   159   160    1
     5   181   179   ar
     6   181   182   ar
     7   179   177   ar
     8   142   143    2
     9   142   141    1
    10   160   163    1
    11   126   127    2
    12   126   125    1
    13   143   144    1
    14   133   132    1
    15   124   125    1
    16   139   136    1
    17   139   140    1
    18   141   140    1
    19   175   174    2
    20   172   173    1
    21   137   138    2
    22   137   136    1
    23   182   183    1
    24   182   180   ar
    25   177   176    1
    26   177   178   ar
    27   176   173    1
    28   125   128    1
    29   128   129    1
    30   164   165    1
    31   135   136    1
    32   132   134    1
    33   132   131    2
    34   173   174    1
    35   201   200    1
    36   166   167    2
    37   166   165    1
    38   129   130    1
    39   199   200    1
    40   199   198    1
    41   178   180   ar
    42   165   168    1
    43   130   131    1
    44   157   158    1
    45   157   154    1
    46   168   169    1
    47   198   197    1
    48   155   156    2
    49   155   154    1
    50   154   153    1
    51   169   170    1
    52   153   148   am
    53   146   147    1
    54   197   194    1
    55   228   227    1
    56   228   229    2
    57   205   204    2
    58   152   150    1
    59   170   171    1
    60   227   230    1
    61   227   226    1
    62   215   214    1
    63   148   147    1
    64   148   149    2
    65   147   150    1
    66   122   121    1
    67   194   195    1
    68   194   193    1
    69   211   214    1
    70   211   212    1
    71   211   210    1
    72   230   231    1
    73   150   151    1
    74   204   210   am
    75   204   203    1
    76   195   202   am
    77   195   196    2
    78   212   213    2
    79   231   232    1
    80   202   203    1
    81   193   186   am
    82   121   120    1
    83   121   123    1
    84   203   206    1
    85   186   187    2
    86   186   185    1
    87   232   233    1
    88   120   117    1
    89    73    72   ar
    90    73    71   ar
    91   216   217    1
    92    72    70   ar
    93   207   206    1
    94   207   209    1
    95   185   184    1
    96   185   188    1
    97   218   217    1
    98   218   219    2
    99   217   220    1
   100   206   208    1
   101    71    69   ar
   102   188   189    1
   103    70    69   ar
   104   222   224   ar
   105   222   221   ar
   106   117   116    1
   107   117   118    1
   108   224   225   ar
   109   119   118    2
   110    97    96    1
   111   220   221    1
   112   221   223   ar
   113    69    68    1
   114   225   223   ar
   115   189   190    1
   116    96    93    1
   117    64    65    1
   118   190   191    1
   119    95    94    2
   120   191   192    1
   121   106   107   ar
   122   106   104   ar
   123    93    94    1
   124    93    92    1
   125    68    65    1
   126   107   105   ar
   127    65    66    1
   128    39    37   am
   129    94    98   am
   130    81    79    1
   131    60    58   ar
   132    60    62   ar
   133   104   103   ar
   134    36    37    1
   135    36    35    1
   136    58    57   ar
   137   111   110    2
   138    52    53    1
   139    80    78    1
   140    37    38    2
   141   105   103   ar
   142    53    54    1
   143    53    56    1
   144   103   102    1
   145    63    62    1
   146    55    54    2
   147    98    99    1
   148    62    61   ar
   149    35    32    1
   150    66    67    2
   151   110   109    1
   152    32    31    1
   153    32    33    1
   154    79    78    1
   155    57    56    1
   156    57    59   ar
   157    34    33    2
   158    99   102    1
   159    99   100    1
   160    78    75    1
   161    33    40   am
   162    61    59   ar
   163    85    84    2
   164   109   112    1
   165   109   108    1
   166   112   113    1
   167   100   101    2
   168    89    88    2
   169    75    76    1
   170    75    74    1
   171    77    76    2
   172    76    82   am
   173    40    41    1
   174    84    83    1
   175    84    86   am
   176    82    83    1
   177   115   114    1
   178    87    88    1
   179    87    86    1
   180    87    90    1
   181    43    42    2
   182    42    41    1
   183   113   114    1
   184    41    44    1
   185    27    29   ar
   186    27    25   ar
   187    90    91    1
   188    29    30   ar
   189    24    25    1
   190    24    21    1
   191    23    22    2
   192    25    26   ar
   193    30    28   ar
   194     7     8    1
   195     7     6    1
   196    44    45    1
   197    22    21    1
   198    21    20    1
   199    26    28   ar
   200    45    47   ar
   201    45    46   ar
   202     6     5    1
   203    47    49   ar
   204    18    16   ar
   205    18    19   ar
   206    46    48   ar
   207    16    14   ar
   208    19    17   ar
   209    49    50   ar
   210    14    13    1
   211    14    15   ar
   212    13    10    1
   213    48    50   ar
   214     5     2    1
   215    17    15   ar
   216    50    51    1
   217    12    11    2
   218     2     3    1
   219     2     1    1
   220    11    10    1
   221    10     9    1
   222     4     3    2
