@<TRIPOS>MOLECULE
tmp/1oahB05.pdb
 157 151 0 0 0
SMALL
GASTEIGER

@<TRIPOS>ATOM
      1  N         34.3890    0.4570   85.0430 N.3   272  PRO272     -0.2102
      2  CA        33.9860   -0.8240   84.4520 C.3   272  PRO272      0.1504
      3  C         33.3640   -1.8020   85.4520 C.2   272  PRO272      0.2575
      4  O         32.4470   -2.5330   85.0780 O.2   272  PRO272     -0.2718
      5  CB        35.3010   -1.3600   83.8830 C.3   272  PRO272      0.0282
      6  CG        36.0480   -0.0960   83.5370 C.3   272  PRO272      0.0208
      7  CD        35.7880    0.8000   84.7290 C.3   272  PRO272      0.0893
      8  N         33.8560   -1.8350   86.6870 N.am  273  HIS273     -0.1976
      9  CA        33.2750   -2.6960   87.7130 C.3   273  HIS273      0.1656
     10  C         32.0890   -2.0640   88.4210 C.2   273  HIS273      0.2291
     11  O         31.0370   -2.6850   88.5540 O.2   273  HIS273     -0.2864
     12  CB        34.3340   -3.0880   88.7420 C.3   273  HIS273      0.0771
     13  CG        35.3080   -4.0940   88.2190 C.ar  273  HIS273      0.0820
     14  ND1       36.5100   -3.7370   87.6480 N.ar  273  HIS273     -0.2267
     15  CD2       35.2300   -5.4400   88.1270 C.ar  273  HIS273      0.1154
     16  CE1       37.1450   -4.8230   87.2500 C.ar  273  HIS273      0.1986
     17  NE2       36.3920   -5.8700   87.5380 N.ar  273  HIS273     -0.2212
     18  N         28.8660   -1.8430   86.5580 N.3   276  ALA276     -0.1245
     19  CA        28.2550   -3.1450   86.2950 C.3   276  ALA276      0.1562
     20  C         27.5800   -3.7570   87.5290 C.2   276  ALA276      0.2260
     21  O         27.1020   -4.8900   87.4810 O.2   276  ALA276     -0.2867
     22  CB        29.2940   -4.1090   85.7210 C.3   276  ALA276      0.0290
     23  N         29.2150   -4.1860   90.4430 N.3   278  VAL278     -0.1245
     24  CA        30.2010   -4.8690   91.2610 C.3   278  VAL278      0.1561
     25  C         30.4680   -3.9940   92.4860 C.2   278  VAL278      0.2260
     26  O         30.5380   -2.7730   92.3700 O.2   278  VAL278     -0.2867
     27  CB        31.5000   -5.1080   90.4650 C.3   278  VAL278      0.0252
     28  CG1       32.5720   -5.7210   91.3530 C.3   278  VAL278      0.0019
     29  CG2       31.2150   -6.0040   89.2460 C.3   278  VAL278      0.0019
     30  N         33.0710   -7.1960   96.8010 N.3   282  ASP282     -0.1225
     31  CA        33.3300   -8.2890   95.8640 C.3   282  ASP282      0.1805
     32  C         34.8350   -8.4920   95.6830 C.2   282  ASP282      0.2598
     33  O         35.3020   -9.6160   95.5960 O.2   282  ASP282     -0.2718
     34  CB        32.6930   -8.0430   94.4840 C.3   282  ASP282      0.1424
     35  CG        31.1710   -8.0980   94.5020 C.2   282  ASP282      0.3668
     36  OD1       30.5900   -8.8080   95.3390 O.co2 282  ASP282     -0.2456
     37  OD2       30.4680   -7.4500   93.7030 O.co2 282  ASP282     -0.2456
     38  N         35.6020   -7.4140   95.6350 N.am  283  CYS283     -0.1970
     39  CA        37.0410   -7.5570   95.4290 C.3   283  CYS283      0.1712
     40  C         37.8430   -7.5090   96.7220 C.2   283  CYS283      0.2296
     41  O         38.9100   -8.1270   96.8330 O.2   283  CYS283     -0.2864
     42  CB        37.5870   -6.4550   94.5090 C.3   283  CYS283      0.0983
     43  SG        36.9930   -6.4720   92.8140 S.3   283  CYS283     -0.0798
     44  N         44.2620   -6.3170   96.8980 N.3   303  PRO303     -0.2116
     45  CA        44.0170   -7.6190   96.2810 C.3   303  PRO303      0.1372
     46  C         45.2650   -8.0790   95.5420 C.2   303  PRO303      0.2244
     47  O         45.4000   -9.2620   95.2670 O.2   303  PRO303     -0.2868
     48  CB        42.8810   -7.3230   95.2960 C.3   303  PRO303      0.0268
     49  CG        42.2370   -6.1200   95.8350 C.3   303  PRO303      0.0207
     50  CD        43.3860   -5.2720   96.3400 C.3   303  PRO303      0.0892
     51  N         45.2600  -14.1450   92.8790 N.3   309  MET309     -0.1245
     52  CA        44.1200  -13.2490   92.7100 C.3   309  MET309      0.1570
     53  C         42.7740  -13.9590   92.9070 C.2   309  MET309      0.2261
     54  O         41.8620  -13.7910   92.0940 O.2   309  MET309     -0.2867
     55  CB        44.1750  -12.6170   91.3120 C.3   309  MET309      0.0387
     56  CG        45.5070  -11.9260   90.9940 C.3   309  MET309      0.0595
     57  SD        45.7970  -10.5160   92.0650 S.3   309  MET309     -0.1393
     58  CE        44.7270   -9.2850   91.2950 C.3   309  MET309      0.0692
     59  N         40.3550  -13.4320   94.8680 N.3   311  ALA311     -0.1231
     60  CA        39.2380  -12.5060   95.0100 C.3   311  ALA311      0.1694
     61  C         38.6740  -12.0480   93.6750 C.2   311  ALA311      0.2592
     62  O         37.6280  -11.4270   93.6380 O.2   311  ALA311     -0.2718
     63  CB        39.6300  -11.3020   95.8580 C.3   311  ALA311      0.0304
     64  N         39.3610  -12.3490   92.5810 N.am  312  CYS312     -0.1970
     65  CA        38.8980  -11.9310   91.2650 C.3   312  CYS312      0.1712
     66  C         38.3170  -13.1020   90.5070 C.2   312  CYS312      0.2296
     67  O         37.4810  -12.9360   89.6240 O.2   312  CYS312     -0.2864
     68  CB        40.0570  -11.3800   90.4310 C.3   312  CYS312      0.0983
     69  SG        41.1520  -10.2500   91.2780 S.3   312  CYS312     -0.0798
     70  N         36.2610  -15.4690   91.1890 N.3   314  GLN314     -0.1231
     71  CA        34.9030  -15.9400   91.3840 C.3   314  GLN314      0.1698
     72  C         34.0560  -15.3460   90.2670 C.2   314  GLN314      0.2592
     73  O         32.9180  -15.7600   90.0470 O.2   314  GLN314     -0.2718
     74  CB        34.3610  -15.5400   92.7600 C.3   314  GLN314      0.0381
     75  CG        34.1480  -14.0360   92.9620 C.3   314  GLN314      0.0905
     76  CD        35.3680  -13.3460   93.5310 C.2   314  GLN314      0.2608
     77  OE1       36.4060  -13.2810   92.8720 O.2   314  GLN314     -0.2717
     78  NE2       35.2530  -12.8320   94.7680 N.am  314  GLN314     -0.0878
     79  N         34.6210  -14.3620   89.5710 N.am  315  CYS315     -0.1956
     80  CA        33.9740  -13.7350   88.4250 C.3   315  CYS315      0.1843
     81  C         34.8120  -13.9860   87.1620 C.2   315  CYS315      0.2625
     82  O         34.2730  -14.1820   86.0800 O.2   315  CYS315     -0.2714
     83  CB        33.7870  -12.2250   88.6540 C.3   315  CYS315      0.0997
     84  SG        32.5520  -11.7350   89.9000 S.3   315  CYS315     -0.0797
     85  N         36.1310  -13.9770   87.3060 N.am  316  HIS316     -0.1973
     86  CA        37.0220  -14.2190   86.1790 C.3   316  HIS316      0.1656
     87  C         37.6510  -15.6000   86.3230 C.2   316  HIS316      0.2291
     88  O         38.8710  -15.7340   86.4290 O.2   316  HIS316     -0.2864
     89  CB        38.1140  -13.1430   86.1000 C.3   316  HIS316      0.0771
     90  CG        37.5850  -11.7490   85.9700 C.ar  316  HIS316      0.0820
     91  ND1       37.1160  -11.2380   84.7790 N.ar  316  HIS316     -0.2267
     92  CD2       37.4440  -10.7590   86.8850 C.ar  316  HIS316      0.1154
     93  CE1       36.7060   -9.9950   84.9660 C.ar  316  HIS316      0.1986
     94  NE2       36.8970   -9.6780   86.2330 N.ar  316  HIS316     -0.2212
     95  N         47.7180  -13.2900   84.7890 N.3   323  TYR323     -0.1227
     96  CA        47.0190  -12.5310   83.7610 C.3   323  TYR323      0.1736
     97  C         46.2840  -11.3120   84.3420 C.2   323  TYR323      0.2595
     98  O         46.3960  -10.1940   83.8270 O.2   323  TYR323     -0.2718
     99  CB        46.0150  -13.3960   83.0010 C.3   323  TYR323      0.0548
    100  CG        45.2500  -12.5610   82.0110 C.ar  323  TYR323     -0.0200
    101  CD1       45.8270  -12.1950   80.8050 C.ar  323  TYR323     -0.0009
    102  CD2       43.9860  -12.0710   82.3100 C.ar  323  TYR323     -0.0009
    103  CE1       45.1550  -11.3960   79.9090 C.ar  323  TYR323      0.0417
    104  CE2       43.3010  -11.2750   81.4170 C.ar  323  TYR323      0.0417
    105  CZ        43.8910  -10.9400   80.2170 C.ar  323  TYR323      0.1957
    106  OH        43.2390  -10.1330   79.3070 O.3   323  TYR323     -0.2866
    107  N         45.5230  -11.5440   85.4060 N.am  324  LEU324     -0.1980
    108  CA        44.7770  -10.4840   86.0540 C.3   324  LEU324      0.1596
    109  C         45.7190   -9.3930   86.5880 C.2   324  LEU324      0.2287
    110  O         45.4630   -8.2010   86.3960 O.2   324  LEU324     -0.2864
    111  CB        43.8970  -11.0660   87.1600 C.3   324  LEU324      0.0297
    112  CG        42.7390  -11.9350   86.6560 C.3   324  LEU324      0.0022
    113  CD1       42.1930  -12.8550   87.7500 C.3   324  LEU324      0.0001
    114  CD2       41.6280  -11.0670   86.0680 C.3   324  LEU324      0.0001
    115  N         46.9290   -7.1520   83.8570 N.3   327  ARG327     -0.1231
    116  CA        45.9080   -6.2470   83.3360 C.3   327  ARG327      0.1694
    117  C         45.6850   -5.1000   84.3060 C.2   327  ARG327      0.2591
    118  O         45.2970   -4.0020   83.8920 O.2   327  ARG327     -0.2718
    119  CB        44.6030   -6.9710   83.0150 C.3   327  ARG327      0.0321
    120  CG        44.7290   -7.9960   81.8910 C.3   327  ARG327      0.0489
    121  CD        45.5120   -7.4840   80.6690 C.3   327  ARG327      0.2205
    122  NE        44.8950   -6.2860   80.0920 N.pl3 327  ARG327     -0.0865
    123  CZ        45.3850   -5.6040   79.0700 C.cat 327  ARG327      0.5346
    124  NH1       46.5120   -5.9940   78.4820 N.pl3 327  ARG327      0.1354
    125  NH2       44.7450   -4.5250   78.6280 N.pl3 327  ARG327      0.1354
    126  N         45.9610   -5.3370   85.5880 N.am  328  VAL328     -0.1980
    127  CA        45.8770   -4.2510   86.5560 C.3   328  VAL328      0.1595
    128  C         47.0310   -3.2980   86.2920 C.2   328  VAL328      0.2287
    129  O         46.8450   -2.0850   86.1820 O.2   328  VAL328     -0.2864
    130  CB        45.9450   -4.7410   88.0130 C.3   328  VAL328      0.0276
    131  CG1       46.1510   -3.5530   88.9620 C.3   328  VAL328      0.0022
    132  CG2       44.6830   -5.4930   88.3780 C.3   328  VAL328      0.0022
    133  N         47.0630   -0.7500   83.4080 N.3   331  THR331     -0.1218
    134  CA        46.5150    0.5690   83.7020 C.3   331  THR331      0.1862
    135  C         47.3750    1.4050   84.6600 C.2   331  THR331      0.2287
    136  O         47.6570    2.5740   84.3940 O.2   331  THR331     -0.2866
    137  CB        45.1080    0.4300   84.2860 C.3   331  THR331      0.1770
    138  OG1       44.2020    0.0580   83.2440 O.3   331  THR331     -0.2211
    139  CG2       44.5840    1.7970   84.7470 C.3   331  THR331      0.0375
    140  N         43.2300    1.8030   88.5650 N.3   396  PHE396     -0.1241
    141  CA        42.5300    0.5490   88.2700 C.3   396  PHE396      0.1605
    142  C         41.0260    0.5740   88.5330 C.2   396  PHE396      0.2264
    143  O         40.2760   -0.0760   87.8100 O.2   396  PHE396     -0.2867
    144  CB        43.1700   -0.6850   88.9210 C.3   396  PHE396      0.0534
    145  CG        42.3150   -1.9200   88.8090 C.ar  396  PHE396     -0.0203
    146  CD1       42.2820   -2.6480   87.6400 C.ar  396  PHE396     -0.0042
    147  CD2       41.5040   -2.3160   89.8630 C.ar  396  PHE396     -0.0042
    148  CE1       41.4850   -3.7690   87.5240 C.ar  396  PHE396     -0.0003
    149  CE2       40.7100   -3.4300   89.7570 C.ar  396  PHE396     -0.0003
    150  CZ        40.6990   -4.1610   88.5780 C.ar  396  PHE396     -0.0000
    151  N         40.0150    3.1020   84.8720 N.3   399  PRO399     -0.2116
    152  CA        41.1430    3.4530   83.9920 C.3   399  PRO399      0.1372
    153  C         40.8930    4.6130   83.0590 C.2   399  PRO399      0.2244
    154  O         41.7520    5.4820   82.9340 O.2   399  PRO399     -0.2868
    155  CB        41.3640    2.1690   83.1760 C.3   399  PRO399      0.0268
    156  CG        40.8680    1.0850   84.0770 C.3   399  PRO399      0.0207
    157  CD        39.6380    1.6830   84.7340 C.3   399  PRO399      0.0892
@<TRIPOS>BOND
     1   124   123    1
     2   125   123    1
     3   123   122    2
     4   106   105    1
     5   103   105   ar
     6   103   101   ar
     7   122   121    1
     8   105   104   ar
     9   121   120    1
    10   101   100   ar
    11   104   102   ar
    12   120   119    1
    13   100   102   ar
    14   100    99    1
    15   154   153    2
    16    99    96    1
    17   119   116    1
    18   153   152    1
    19   155   152    1
    20   155   156    1
    21   138   137    1
    22   116   115    1
    23   116   117    1
    24   133   134    1
    25     6     5    1
    26     6     7    1
    27   134   137    1
    28   134   135    1
    29    96    97    1
    30    96    95    1
    31    98    97    2
    32     5     2    1
    33   118   117    2
    34   152   151    1
    35   156   157    1
    36   137   139    1
    37   117   126   am
    38    97   107   am
    39   136   135    2
    40     2     1    1
    41     2     3    1
    42     7     1    1
    43   157   151    1
    44    91    93   ar
    45    91    90   ar
    46    93    94   ar
    47     4     3    2
    48   107   108    1
    49     3     8   am
    50   126   127    1
    51    22    19    1
    52    90    89    1
    53    90    92   ar
    54   108   109    1
    55   108   111    1
    56   114   112    1
    57    82    81    2
    58    89    86    1
    59    86    87    1
    60    86    85    1
    61   129   128    2
    62    94    92   ar
    63   128   127    1
    64    19    18    1
    65    19    20    1
    66    87    88    2
    67   110   109    2
    68   127   130    1
    69   112   111    1
    70   112   113    1
    71     8     9    1
    72    81    85   am
    73    81    80    1
    74    16    17   ar
    75    16    14   ar
    76    21    20    2
    77   148   146   ar
    78   148   150   ar
    79    17    15   ar
    80   146   145   ar
    81    14    13   ar
    82     9    10    1
    83     9    12    1
    84   143   142    2
    85   130   132    1
    86   130   131    1
    87    15    13   ar
    88    13    12    1
    89   141   142    1
    90   141   140    1
    91   141   144    1
    92    10    11    2
    93    80    83    1
    94    80    79    1
    95   150   149   ar
    96    83    84    1
    97   145   144    1
    98   145   147   ar
    99    29    27    1
   100    79    72   am
   101    67    66    2
   102   149   147   ar
   103    73    72    2
   104    72    71    1
   105    68    65    1
   106    68    69    1
   107    23    24    1
   108    27    24    1
   109    27    28    1
   110    66    65    1
   111    56    55    1
   112    56    57    1
   113    70    71    1
   114    24    25    1
   115    65    64    1
   116    58    57    1
   117    55    52    1
   118    71    74    1
   119    54    53    2
   120    26    25    2
   121    64    61   am
   122    52    51    1
   123    52    53    1
   124    74    75    1
   125    43    42    1
   126    77    76    2
   127    75    76    1
   128    76    78   am
   129    62    61    2
   130    61    60    1
   131    37    35   ar
   132    34    35    1
   133    34    31    1
   134    35    36   ar
   135    42    39    1
   136    59    60    1
   137    60    63    1
   138    47    46    2
   139    48    49    1
   140    48    45    1
   141    39    38    1
   142    39    40    1
   143    46    45    1
   144    33    32    2
   145    38    32   am
   146    32    31    1
   147    49    50    1
   148    31    30    1
   149    45    44    1
   150    50    44    1
   151    40    41    2
