@<TRIPOS>MOLECULE
tmp/1oaiA00.pdb
 129 125 0 0 0
SMALL
GASTEIGER

@<TRIPOS>ATOM
      1  N          7.9840   33.6250    3.2480 N.3    20  MET20      -0.1245
      2  CA         7.7630   34.9210    2.5700 C.3    20  MET20       0.1570
      3  C          7.8080   36.0180    3.6280 C.2    20  MET20       0.2261
      4  O          7.4920   35.8080    4.8120 O.2    20  MET20      -0.2867
      5  CB         6.4490   34.9340    1.8020 C.3    20  MET20       0.0387
      6  CG         6.4270   34.0150    0.6410 C.3    20  MET20       0.0595
      7  SD         5.0210   34.2080   -0.4830 S.3    20  MET20      -0.1393
      8  CE         3.6650   33.8010    0.6240 C.3    20  MET20       0.0692
      9  N          4.1520   39.9780    1.4950 N.3    24  TRP24      -0.1241
     10  CA         3.7200   38.9360    0.5320 C.3    24  TRP24       0.1605
     11  C          2.8900   37.8700    1.2130 C.2    24  TRP24       0.2264
     12  O          2.0040   37.2910    0.5820 O.2    24  TRP24      -0.2867
     13  CB         4.9460   38.3420   -0.1890 C.3    24  TRP24       0.0550
     14  CG         5.3770   39.2160   -1.3420 C.ar   24  TRP24       0.0003
     15  CD1        6.1850   40.3180   -1.3060 C.ar   24  TRP24       0.0946
     16  CD2        4.9790   39.0690   -2.6800 C.ar   24  TRP24       0.0152
     17  NE1        6.3160   40.8390   -2.5600 N.ar   24  TRP24      -0.2442
     18  CE2        5.5850   40.1030   -3.4360 C.ar   24  TRP24       0.0810
     19  CE3        4.1800   38.1300   -3.3480 C.ar   24  TRP24       0.0012
     20  CZ2        5.4010   40.2410   -4.7930 C.ar   24  TRP24       0.0191
     21  CZ3        3.9720   38.2840   -4.7000 C.ar   24  TRP24       0.0001
     22  CH2        4.5720   39.3110   -5.4160 C.ar   24  TRP24       0.0015
     23  N         -0.5000   39.3390    1.3340 N.3    27  LYS27      -0.1231
     24  CA        -1.0750   39.2360    0.0190 C.3    27  LYS27       0.1693
     25  C         -1.6430   37.8110   -0.2220 C.2    27  LYS27       0.2592
     26  O         -2.7570   37.6700   -0.7050 O.2    27  LYS27      -0.2718
     27  CB        -0.0250   39.5650   -1.0410 C.3    27  LYS27       0.0285
     28  CG        -0.5060   39.4180   -2.4020 C.3    27  LYS27       0.0035
     29  CD         0.4170   39.8920   -3.4140 C.3    27  LYS27       0.0206
     30  CE         0.0220   39.4440   -4.7700 C.3    27  LYS27       0.1093
     31  NZ        -1.4990   39.5450   -5.0170 N.3    27  LYS27      -0.1314
     32  N         -0.8680   36.7990    0.0900 N.am   28  CYS28      -0.1970
     33  CA        -1.3490   35.4430   -0.1410 C.3    28  CYS28       0.1712
     34  C         -2.5950   35.1560    0.6890 C.2    28  CYS28       0.2296
     35  O         -3.5680   34.5860    0.1750 O.2    28  CYS28      -0.2864
     36  CB        -0.2200   34.4650    0.1410 C.3    28  CYS28       0.0983
     37  SG        -0.6020   32.7260   -0.1960 S.3    28  CYS28      -0.0798
     38  N         -4.8020   37.3550    1.9510 N.3    30  GLN30      -0.1182
     39  CA        -5.9170   38.1430    1.4600 C.3    30  GLN30       0.1914
     40  C         -6.4620   37.5780    0.1510 C.2    30  GLN30       0.2634
     41  O         -7.6810   37.5360   -0.0220 O.2    30  GLN30      -0.2714
     42  CB        -5.4260   39.6000    1.2540 C.2    30  GLN30       0.0065
     43  CG        -5.0900   40.3770    2.4450 C.2    30  GLN30       0.0585
     44  CD        -4.5600   41.7920    2.1750 C.2    30  GLN30       0.2840
     45  OE1       -4.6020   42.6410    3.0910 O.2    30  GLN30      -0.2667
     46  NE2       -4.0530   42.0460    0.9510 N.am   30  GLN30      -0.0837
     47  N         -5.5870   37.1220   -0.7350 N.am   31  ASP31      -0.1957
     48  CA        -5.9850   36.5460   -1.9840 C.3    31  ASP31       0.1840
     49  C         -6.8050   35.2590   -1.8020 C.2    31  ASP31       0.2622
     50  O         -7.5220   34.8740   -2.7230 O.2    31  ASP31      -0.2715
     51  CB        -4.7520   36.2150   -2.8560 C.3    31  ASP31       0.1450
     52  CG        -4.0090   37.4060   -3.4690 C.2    31  ASP31       0.3671
     53  OD1       -4.5060   38.5500   -3.3750 O.co2  31  ASP31      -0.2456
     54  OD2       -2.9250   37.1860   -4.0710 O.co2  31  ASP31      -0.2456
     55  N         -6.6760   34.6360   -0.6330 N.am   32  ASN32      -0.1958
     56  CA        -7.3190   33.3790   -0.2860 C.3    32  ASN32       0.1819
     57  C         -8.2570   33.5110    0.9090 C.2    32  ASN32       0.2621
     58  O         -8.4850   32.5560    1.6490 O.2    32  ASN32      -0.2715
     59  CB        -6.2550   32.3190   -0.0530 C.3    32  ASN32       0.1195
     60  CG        -5.6000   31.8980   -1.3350 C.2    32  ASN32       0.2630
     61  OD1       -6.1880   31.1810   -2.1520 O.2    32  ASN32      -0.2716
     62  ND2       -4.3620   32.3350   -1.5740 N.am   32  ASN32      -0.0877
     63  N         -8.8670   34.6880    1.1050 N.am   33  ASN33      -0.1972
     64  CA        -9.9410   34.8450    2.0850 C.3    33  ASN33       0.1688
     65  C         -9.5470   34.6060    3.5200 C.2    33  ASN33       0.2292
     66  O        -10.3730   34.2010    4.3480 O.2    33  ASN33      -0.2864
     67  CB       -11.1510   33.9540    1.7640 C.3    33  ASN33       0.1181
     68  CG       -11.5880   34.1200    0.4060 C.2    33  ASN33       0.2629
     69  OD1      -11.7450   35.2460   -0.0940 O.2    33  ASN33      -0.2716
     70  ND2      -11.7790   33.0130   -0.2700 N.am   33  ASN33      -0.0877
     71  N         -6.3280   26.9760    2.6610 N.3    38  ARG38      -0.1245
     72  CA        -6.3520   27.3170    1.2720 C.3    38  ARG38       0.1563
     73  C         -5.1150   28.0720    0.8440 C.2    38  ARG38       0.2260
     74  O         -4.5470   27.7980   -0.2210 O.2    38  ARG38      -0.2867
     75  CB        -7.5910   28.1480    0.9900 C.3    38  ARG38       0.0307
     76  CG        -7.7250   28.6190   -0.4000 C.3    38  ARG38       0.0489
     77  CD        -8.9740   29.3590   -0.5940 C.3    38  ARG38       0.2205
     78  NE        -8.9090   30.0600   -1.8250 N.pl3  38  ARG38      -0.0865
     79  CZ        -9.9320   30.5550   -2.4530 C.cat  38  ARG38       0.5346
     80  NH1      -11.1400   30.4870   -1.9540 N.pl3  38  ARG38       0.1354
     81  NH2       -9.6770   31.2250   -3.5680 N.pl3  38  ARG38       0.1354
     82  N         -2.3560   27.0140   -1.9510 N.3    42  ALA42      -0.1231
     83  CA        -2.1120   27.9130   -3.0610 C.3    42  ALA42       0.1694
     84  C         -0.6370   28.2750   -3.1720 C.2    42  ALA42       0.2592
     85  O         -0.0500   28.3000   -4.2680 O.2    42  ALA42      -0.2718
     86  CB        -2.9750   29.1460   -2.9240 C.3    42  ALA42       0.0304
     87  N         -0.0290   28.5710   -2.0350 N.am   43  PHE43      -0.1976
     88  CA         1.3900   28.8820   -1.9830 C.3    43  PHE43       0.1639
     89  C          2.2300   27.7000   -2.4820 C.2    43  PHE43       0.2290
     90  O          3.1190   27.8800   -3.2980 O.2    43  PHE43      -0.2864
     91  CB         1.7710   29.2470   -0.5270 C.3    43  PHE43       0.0560
     92  CG         3.2610   29.3150   -0.3120 C.ar   43  PHE43      -0.0200
     93  CD1        3.9910   30.4170   -0.6750 C.ar   43  PHE43      -0.0042
     94  CD2        3.9670   28.2290    0.1870 C.ar   43  PHE43      -0.0042
     95  CE1        5.3480   30.4570   -0.5420 C.ar   43  PHE43      -0.0003
     96  CE2        5.3160   28.2560    0.3220 C.ar   43  PHE43      -0.0003
     97  CZ         6.0260   29.3930   -0.0730 C.ar   43  PHE43      -0.0000
     98  N          2.1170   27.2280   -6.3280 N.3    46  LEU46      -0.1245
     99  CA         2.8720   28.2240   -7.0890 C.3    46  LEU46       0.1561
    100  C          4.3860   28.1030   -6.8260 C.2    46  LEU46       0.2260
    101  O          5.1760   28.3280   -7.7540 O.2    46  LEU46      -0.2867
    102  CB         2.3640   29.6280   -6.7750 C.3    46  LEU46       0.0270
    103  CG         0.9960   29.9300   -7.4010 C.3    46  LEU46       0.0019
    104  CD1        0.2970   31.0520   -6.6910 C.3    46  LEU46       0.0001
    105  CD2        1.1400   30.2410   -8.8620 C.3    46  LEU46       0.0001
    106  N          7.0570   29.9670   -9.7800 N.3    51  GLU51      -0.1182
    107  CA         6.3830   31.1840  -10.2480 C.3    51  GLU51       0.1915
    108  C          6.2660   32.2660   -9.2120 C.2    51  GLU51       0.2634
    109  O          5.9120   33.3990   -9.5950 O.2    51  GLU51      -0.2714
    110  CB         4.9850   30.8280  -10.8230 C.2    51  GLU51       0.0085
    111  CG         4.9870   30.0890  -12.1290 C.2    51  GLU51       0.0835
    112  CD         3.5830   29.7210  -12.6780 C.2    51  GLU51       0.3877
    113  OE1        2.5030   30.1950  -12.2260 O.co2  51  GLU51      -0.2406
    114  OE2        3.5610   28.8920  -13.6510 O.co2  51  GLU51      -0.2406
    115  N          6.5450   32.0410   -7.9530 N.am   52  ILE52      -0.1963
    116  CA         6.4320   33.1410   -6.9800 C.3    52  ILE52       0.1712
    117  C          7.5980   34.0620   -7.2220 C.2    52  ILE52       0.2458
    118  O          8.7480   33.6080   -7.2530 O.2    52  ILE52      -0.2730
    119  CB         6.4090   32.6190   -5.5520 C.3    52  ILE52       0.0289
    120  CG1        5.2270   31.6570   -5.3620 C.3    52  ILE52       0.0022
    121  CG2        6.2690   33.7930   -4.5820 C.3    52  ILE52       0.0023
    122  CD1        5.1790   31.0380   -4.0090 C.3    52  ILE52       0.0001
    123  N          7.3700   35.3760   -7.3220 N.am   53  PRO53      -0.2727
    124  CA         8.4610   36.3110   -7.5640 C.3    53  PRO53       0.1402
    125  C          9.5020   36.1810   -6.4340 C.2    53  PRO53       0.2269
    126  O          9.1690   36.0830   -5.2480 O.2    53  PRO53      -0.2865
    127  CB         7.7110   37.6740   -7.5830 C.3    53  PRO53       0.0296
    128  CG         6.4000   37.3820   -8.1000 C.3    53  PRO53       0.0237
    129  CD         6.0770   36.0740   -7.4060 C.3    53  PRO53       0.0939
@<TRIPOS>BOND
     1   114   112   ar
     2   112   113   ar
     3   112   111    1
     4   111   110    2
     5   110   107    1
     6   107   106    1
     7   107   108    1
     8   109   108    2
     9   108   115   am
    10   105   103    1
    11   128   127    1
    12   128   129    1
    13   115   116    1
    14   101   100    2
    15   127   124    1
    16   124   123    1
    17   124   125    1
    18   129   123    1
    19   103   102    1
    20   103   104    1
    21   123   117   am
    22   118   117    2
    23   117   116    1
    24    99   100    1
    25    99   102    1
    26    99    98    1
    27   116   119    1
    28   125   126    2
    29   119   120    1
    30   119   121    1
    31    22    20   ar
    32    22    21   ar
    33   120   122    1
    34    31    30    1
    35    20    18   ar
    36    30    29    1
    37    21    19   ar
    38    85    84    2
    39    54    52   ar
    40    81    79    1
    41    52    53   ar
    42    52    51    1
    43    18    16   ar
    44    18    17   ar
    45    29    28    1
    46    19    16   ar
    47    90    89    2
    48    84    83    1
    49    84    87   am
    50    83    86    1
    51    83    82    1
    52    51    48    1
    53    50    49    2
    54    16    14   ar
    55    17    15   ar
    56    89    88    1
    57    79    80    1
    58    79    78    2
    59    28    27    1
    60    61    60    2
    61    87    88    1
    62    48    49    1
    63    48    47    1
    64    88    91    1
    65    78    77    1
    66    49    55   am
    67    62    60   am
    68    14    15   ar
    69    14    13    1
    70    60    59    1
    71    27    24    1
    72    47    40   am
    73    26    25    2
    74    93    95   ar
    75    93    92   ar
    76    55    56    1
    77    77    76    1
    78    95    97   ar
    79    91    92    1
    80     7     8    1
    81     7     6    1
    82    76    75    1
    83    92    94   ar
    84    56    59    1
    85    56    57    1
    86    70    68   am
    87    25    24    1
    88    25    32   am
    89    74    73    2
    90    37    36    1
    91    13    10    1
    92    33    32    1
    93    33    36    1
    94    33    34    1
    95    69    68    2
    96    97    96   ar
    97    41    40    2
    98    24    23    1
    99    40    39    1
   100    35    34    2
   101    94    96   ar
   102    68    67    1
   103    10    11    1
   104    10     9    1
   105    12    11    2
   106     6     5    1
   107    73    72    1
   108    57    63   am
   109    57    58    2
   110    46    44   am
   111    75    72    1
   112    63    64    1
   113    42    39    1
   114    42    43    2
   115    72    71    1
   116    39    38    1
   117    67    64    1
   118     5     2    1
   119    64    65    1
   120    44    43    1
   121    44    45    2
   122     2     1    1
   123     2     3    1
   124    65    66    2
   125     3     4    2
