@<TRIPOS>MOLECULE
tmp/1oatC00.pdb
 106 102 0 0 0
SMALL
GASTEIGER

@<TRIPOS>ATOM
      1  N          8.4450   11.1370    3.0890 N.3   106  THR106     -0.1203
      2  CA         9.7740   10.8150    2.5880 C.3   106  THR106      0.1994
      3  C         10.8560   11.3000    3.5300 C.2   106  THR106      0.2618
      4  O         10.5850   12.0350    4.4680 O.2   106  THR106     -0.2717
      5  CB         9.9590   11.4220    1.2060 C.3   106  THR106      0.1784
      6  OG1        9.8410   12.8410    1.2900 O.3   106  THR106     -0.2211
      7  CG2        8.8670   10.9130    0.2930 C.3   106  THR106      0.0376
      8  N         12.0800   10.8500    3.2990 N.am  107  GLY107     -0.1942
      9  CA        13.2040   11.2320    4.1370 C.3   107  GLY107      0.2014
     10  C         13.5250   12.7060    4.0830 C.2   107  GLY107      0.2638
     11  O         13.7540   13.2580    5.1430 O.2   107  GLY107     -0.2714
     12  N         13.5880   13.3330    2.8870 N.am  108  VAL108     -0.1977
     13  CA        13.8340   14.7780    2.8270 C.3   108  VAL108      0.1596
     14  C         12.7930   15.5480    3.6010 C.2   108  VAL108      0.2287
     15  O         13.1240   16.5430    4.2000 O.2   108  VAL108     -0.2864
     16  CB        13.7380   15.4760    1.4330 C.3   108  VAL108      0.0276
     17  CG1       15.0750   15.9120    0.9680 C.3   108  VAL108      0.0022
     18  CG2       12.9000   14.7170    0.4210 C.3   108  VAL108      0.0022
     19  N         24.2160   13.7850    3.0940 N.3   142  PHE142     -0.1227
     20  CA        23.1680   13.5240    2.1270 C.3   142  PHE142      0.1736
     21  C         21.8680   13.3780    2.8860 C.2   142  PHE142      0.2595
     22  O         21.7620   12.5330    3.7690 O.2   142  PHE142     -0.2718
     23  CB        23.4090   12.2570    1.3170 C.3   142  PHE142      0.0547
     24  CG        22.2580   11.9130    0.4120 C.ar  142  PHE142     -0.0202
     25  CD1       22.1570   12.4940   -0.8500 C.ar  142  PHE142     -0.0042
     26  CD2       21.2330   11.0820    0.8550 C.ar  142  PHE142     -0.0042
     27  CE1       21.0420   12.2620   -1.6560 C.ar  142  PHE142     -0.0003
     28  CE2       20.1080   10.8350    0.0580 C.ar  142  PHE142     -0.0003
     29  CZ        20.0160   11.4300   -1.2010 C.ar  142  PHE142     -0.0000
     30  N         20.8970   14.2380    2.5710 N.am  143  TRP143     -0.1962
     31  CA        19.5960   14.1950    3.2460 C.3   143  TRP143      0.1771
     32  C         18.4230   14.4330    2.3020 C.2   143  TRP143      0.2620
     33  O         17.3150   14.7150    2.7330 O.2   143  TRP143     -0.2715
     34  CB        19.5350   15.1230    4.4790 C.3   143  TRP143      0.0590
     35  CG        19.6890   16.6180    4.2440 C.ar  143  TRP143      0.0006
     36  CD1       20.8600   17.3200    4.1740 C.ar  143  TRP143      0.0946
     37  CD2       18.6380   17.6100    4.2920 C.ar  143  TRP143      0.0152
     38  NE1       20.6110   18.6660    4.2050 N.ar  143  TRP143     -0.2442
     39  CE2       19.2610   18.8770    4.2850 C.ar  143  TRP143      0.0810
     40  CE3       17.2370   17.5480    4.3500 C.ar  143  TRP143      0.0012
     41  CZ2       18.5230   20.0710    4.3390 C.ar  143  TRP143      0.0191
     42  CZ3       16.5200   18.7300    4.4040 C.ar  143  TRP143      0.0001
     43  CH2       17.1520   19.9650    4.4010 C.ar  143  TRP143      0.0015
     44  N         18.6860   14.3160    1.0080 N.am  144  GLY144     -0.1954
     45  CA        17.6470   14.4930    0.0280 C.3   144  GLY144      0.1869
     46  C         17.9980   15.3340   -1.1820 C.2   144  GLY144      0.2309
     47  O         19.1070   15.8260   -1.3300 O.2   144  GLY144     -0.2863
     48  N         24.8310   12.6960   10.1550 N.3   195  GLU195     -0.1245
     49  CA        24.5660   11.2770   10.0210 C.3   195  GLU195      0.1567
     50  C         25.5860   10.6000   10.9290 C.2   195  GLU195      0.2260
     51  O         26.7380   11.0170   10.9660 O.2   195  GLU195     -0.2867
     52  CB        24.8370   10.8190    8.5960 C.3   195  GLU195      0.0388
     53  CG        23.8400   11.2970    7.6090 C.3   195  GLU195      0.1160
     54  CD        24.3490   11.2460    6.1950 C.2   195  GLU195      0.3649
     55  OE1       24.3120   10.1570    5.5830 O.co2 195  GLU195     -0.2457
     56  OE2       24.8040   12.2940    5.6810 O.co2 195  GLU195     -0.2457
     57  N         25.7930    7.5510    1.7600 N.3   200  GLU200     -0.1245
     58  CA        26.0410    7.8760    0.3650 C.3   200  GLU200      0.1567
     59  C         27.4510    8.3800    0.1240 C.2   200  GLU200      0.2260
     60  O         27.9420    8.3100   -0.9930 O.2   200  GLU200     -0.2867
     61  CB        25.0160    8.8820   -0.1750 C.3   200  GLU200      0.0388
     62  CG        23.5830    8.4930    0.0680 C.3   200  GLU200      0.1160
     63  CD        23.1970    7.1450   -0.5540 C.2   200  GLU200      0.3649
     64  OE1       23.4920    6.9210   -1.7620 O.co2 200  GLU200     -0.2457
     65  OE2       22.5810    6.3090    0.1600 O.co2 200  GLU200     -0.2457
     66  N         20.5120   12.3080   11.8200 N.3   228  ASP228     -0.1239
     67  CA        19.7960   11.7600   10.7020 C.3   228  ASP228      0.1674
     68  C         20.0600   10.2430   10.6840 C.2   228  ASP228      0.2266
     69  O         21.1530    9.8000   10.2640 O.2   228  ASP228     -0.2867
     70  CB        20.3120   12.4100    9.3990 C.3   228  ASP228      0.1410
     71  CG        19.5050   12.0020    8.1880 C.2   228  ASP228      0.3668
     72  OD1       18.6800   11.0540    8.3350 O.co2 228  ASP228     -0.2456
     73  OD2       19.6680   12.6160    7.0950 O.co2 228  ASP228     -0.2456
     74  N         18.0740    8.0380    9.0380 N.3   230  ILE230     -0.1231
     75  CA        17.2050    7.5270    7.9700 C.3   230  ILE230      0.1692
     76  C         17.7910    6.3060    7.2920 C.2   230  ILE230      0.2592
     77  O         17.0680    5.4160    6.8620 O.2   230  ILE230     -0.2718
     78  CB        16.8480    8.6570    6.9670 C.3   230  ILE230      0.0266
     79  CG1       15.9720    9.6970    7.6780 C.3   230  ILE230      0.0019
     80  CG2       16.0770    8.1440    5.7540 C.3   230  ILE230      0.0020
     81  CD1       15.7630   10.9810    6.8740 C.3   230  ILE230      0.0001
     82  N         19.1180    6.2090    7.3010 N.am  231  GLN231     -0.1966
     83  CA        19.7970    5.0670    6.7060 C.3   231  GLN231      0.1733
     84  C         20.4950    4.1600    7.7340 C.2   231  GLN231      0.2617
     85  O         20.4660    2.9290    7.6360 O.2   231  GLN231     -0.2715
     86  CB        20.7890    5.5210    5.6500 C.3   231  GLN231      0.0408
     87  CG        21.4330    4.3610    4.9080 C.3   231  GLN231      0.0908
     88  CD        22.3180    4.8050    3.7830 C.2   231  GLN231      0.2608
     89  OE1       23.3780    4.2090    3.5590 O.2   231  GLN231     -0.2717
     90  NE2       21.8920    5.8080    3.0290 N.am  231  GLN231     -0.0878
     91  N         21.0620    4.7700    8.7590 N.am  232  THR232     -0.1951
     92  CA        21.7650    4.0490    9.8100 C.3   232  THR232      0.1897
     93  C         20.8200    3.5000   10.9060 C.2   232  THR232      0.2313
     94  O         21.1390    2.5250   11.5730 O.2   232  THR232     -0.2863
     95  CB        22.8210    4.9810   10.4550 C.3   232  THR232      0.1794
     96  OG1       22.1670    6.1000   11.0550 O.3   232  THR232     -0.2208
     97  CG2       23.8030    5.5190    9.4180 C.3   232  THR232      0.0378
     98  N         13.0850    5.4930    5.3690 N.3   257  LYS257     -0.1245
     99  CA        13.3870    4.2070    4.6950 C.3   257  LYS257      0.1561
    100  C         12.6750    2.9300    5.1810 C.2   257  LYS257      0.2260
    101  O         11.5730    2.6290    4.8100 O.2   257  LYS257     -0.2867
    102  CB        14.8080    4.0870    4.1720 C.3   257  LYS257      0.0271
    103  CG        15.2650    5.1850    3.3320 C.3   257  LYS257      0.0035
    104  CD        16.6540    4.7440    3.0510 C.3   257  LYS257      0.0206
    105  CE        17.2740    5.6080    2.0160 C.3   257  LYS257      0.1093
    106  NZ        18.0740    6.7750    2.4510 N.3   257  LYS257     -0.1314
@<TRIPOS>BOND
     1    64    63   ar
     2    27    29   ar
     3    27    25   ar
     4    47    46    2
     5    29    28   ar
     6    46    45    1
     7    60    59    2
     8    25    24   ar
     9    63    62    1
    10    63    65   ar
    11    61    62    1
    12    61    58    1
    13    45    44    1
    14    28    26   ar
    15    59    58    1
    16     7     5    1
    17    58    57    1
    18    24    26   ar
    19    24    23    1
    20    18    16    1
    21    17    16    1
    22    44    32   am
    23     5     6    1
    24     5     2    1
    25    23    20    1
    26    16    13    1
    27   105   106    1
    28   105   104    1
    29    20    21    1
    30    20    19    1
    31    32    33    2
    32    32    31    1
    33    30    21   am
    34    30    31    1
    35     2     1    1
    36     2     3    1
    37    13    12    1
    38    13    14    1
    39    21    22    2
    40    12    10   am
    41    90    88   am
    42   104   103    1
    43    31    34    1
    44     8     3   am
    45     8     9    1
    46   103   102    1
    47     3     4    2
    48    89    88    2
    49    14    15    2
    50    88    87    1
    51    10     9    1
    52    10    11    2
    53   102    99    1
    54    36    38   ar
    55    36    35   ar
    56    38    39   ar
    57    35    37   ar
    58    35    34    1
    59    39    37   ar
    60    39    41   ar
    61    37    40   ar
    62    41    43   ar
    63    40    42   ar
    64    43    42   ar
    65    99   100    1
    66    99    98    1
    67   101   100    2
    68    87    86    1
    69    55    54   ar
    70    86    83    1
    71    56    54   ar
    72    80    78    1
    73    54    53    1
    74    83    82    1
    75    83    84    1
    76    77    76    2
    77    81    79    1
    78    78    79    1
    79    78    75    1
    80    73    71   ar
    81    76    82   am
    82    76    75    1
    83    53    52    1
    84    85    84    2
    85    84    91   am
    86    75    74    1
    87    71    72   ar
    88    71    70    1
    89    52    49    1
    90    91    92    1
    91    70    67    1
    92    97    95    1
    93    92    95    1
    94    92    93    1
    95    49    48    1
    96    49    50    1
    97    69    68    2
    98    95    96    1
    99    68    67    1
   100    67    66    1
   101    93    94    2
   102    50    51    2
