@<TRIPOS>MOLECULE
tmp/1ob2A01.pdb
 113 108 0 0 0
SMALL
GASTEIGER

@<TRIPOS>ATOM
      1  N        102.7880   52.1550  120.4520 N.3     3  GLU3       -0.1245
      2  CA       103.5010   52.9010  119.4240 C.3     3  GLU3        0.1567
      3  C        102.6720   52.6750  118.1790 C.2     3  GLU3        0.2260
      4  O        101.4600   52.8500  118.2140 O.2     3  GLU3       -0.2867
      5  CB       104.9300   52.4010  119.2120 C.3     3  GLU3        0.0388
      6  CG       105.9770   53.4370  119.6230 C.3     3  GLU3        0.1160
      7  CD       107.3550   53.1860  119.0280 C.2     3  GLU3        0.3649
      8  OE1      107.4870   53.2230  117.7870 O.co2   3  GLU3       -0.2457
      9  OE2      108.3080   52.9620  119.8020 O.co2   3  GLU3       -0.2457
     10  N        104.4220   51.4790  114.6190 N.3     5  PHE5       -0.1227
     11  CA       105.1970   50.8080  113.5830 C.3     5  PHE5        0.1736
     12  C        104.4920   51.0050  112.2540 C.2     5  PHE5        0.2595
     13  O        103.5440   50.2840  111.9370 O.2     5  PHE5       -0.2718
     14  CB       105.3890   49.2950  113.7790 C.3     5  PHE5        0.0547
     15  CG       106.3670   48.7090  112.7750 C.ar    5  PHE5       -0.0202
     16  CD1      107.7360   48.7360  113.0070 C.ar    5  PHE5       -0.0042
     17  CD2      105.9240   48.2720  111.5360 C.ar    5  PHE5       -0.0042
     18  CE1      108.6330   48.3460  112.0170 C.ar    5  PHE5       -0.0003
     19  CE2      106.8210   47.8860  110.5490 C.ar    5  PHE5       -0.0003
     20  CZ       108.1700   47.9250  110.7900 C.ar    5  PHE5       -0.0000
     21  N        104.9620   51.9790  111.4840 N.am    6  GLU6       -0.1979
     22  CA       104.3700   52.2640  110.1960 C.3     6  GLU6        0.1602
     23  C        105.2970   51.7350  109.1390 C.2     6  GLU6        0.2287
     24  O        106.4930   51.9530  109.1950 O.2     6  GLU6       -0.2864
     25  CB       104.1870   53.7650  110.0330 C.3     6  GLU6        0.0415
     26  CG       103.5140   54.4220  111.2260 C.3     6  GLU6        0.1163
     27  CD       102.3900   55.3530  110.8110 C.2     6  GLU6        0.3649
     28  OE1      102.6300   56.2090  109.9210 O.co2   6  GLU6       -0.2457
     29  OE2      101.2700   55.2320  111.3760 O.co2   6  GLU6       -0.2457
     30  N        107.4250   51.0420  105.7140 N.3     8  THR8       -0.1203
     31  CA       108.3430   51.8350  104.8890 C.3     8  THR8        0.1994
     32  C        109.4910   50.8880  104.5470 C.2     8  THR8        0.2617
     33  O        109.9850   50.1750  105.4330 O.2     8  THR8       -0.2717
     34  CB       109.0110   52.9970  105.6300 C.3     8  THR8        0.1784
     35  OG1      108.1160   53.5700  106.5830 O.3     8  THR8       -0.2211
     36  CG2      109.4320   54.0430  104.6330 C.3     8  THR8        0.0376
     37  N        109.9190   50.8720  103.2850 N.am    9  LYS9       -0.1979
     38  CA       111.0310   50.0020  102.8840 C.3     9  LYS9        0.1596
     39  C        110.6820   48.5200  103.0110 C.2     9  LYS9        0.2287
     40  O        109.8150   48.1460  103.7940 O.2     9  LYS9       -0.2864
     41  CB       112.2580   50.2450  103.7830 C.3     9  LYS9        0.0298
     42  CG       112.6940   51.6890  103.9930 C.3     9  LYS9        0.0038
     43  CD       113.9730   51.7770  104.8400 C.3     9  LYS9        0.0206
     44  CE       113.6800   51.8430  106.3360 C.3     9  LYS9        0.1093
     45  NZ       113.1420   53.1680  106.7600 N.3     9  LYS9       -0.1314
     46  N        121.7750   57.2040  111.3210 N.3    39  TYR39      -0.1227
     47  CA       120.4780   56.9760  110.6630 C.3    39  TYR39       0.1736
     48  C        119.3760   57.0930  111.7300 C.2    39  TYR39       0.2596
     49  O        118.2070   56.7610  111.4820 O.2    39  TYR39      -0.2718
     50  CB       120.4000   55.5690  110.0730 C.3    39  TYR39       0.0548
     51  CG       121.3410   55.2660  108.9330 C.ar   39  TYR39      -0.0200
     52  CD1      122.0050   54.0370  108.8630 C.ar   39  TYR39      -0.0009
     53  CD2      121.5480   56.1770  107.9100 C.ar   39  TYR39      -0.0009
     54  CE1      122.8480   53.7280  107.8040 C.ar   39  TYR39       0.0417
     55  CE2      122.3940   55.8800  106.8480 C.ar   39  TYR39       0.0417
     56  CZ       123.0380   54.6550  106.7990 C.ar   39  TYR39       0.1957
     57  OH       123.8510   54.3590  105.7290 O.3    39  TYR39      -0.2866
     58  N        119.7910   57.5180  112.9250 N.am   40  GLY40      -0.1942
     59  CA       118.9090   57.7230  114.0680 C.3    40  GLY40       0.2014
     60  C        117.8160   56.7460  114.4810 C.2    40  GLY40       0.2639
     61  O        116.6460   57.1250  114.5380 O.2    40  GLY40      -0.2714
     62  N        118.1790   55.5100  114.8110 N.am   41  GLY41      -0.1939
     63  CA       117.1740   54.5420  115.2230 C.3    41  GLY41       0.2014
     64  C        116.8470   54.5520  116.7130 C.2    41  GLY41       0.2638
     65  O        116.0890   55.3980  117.1980 O.2    41  GLY41      -0.2714
     66  N        117.4210   53.5870  117.4300 N.am   42  ALA42      -0.1977
     67  CA       117.2530   53.4020  118.8770 C.3    42  ALA42       0.1597
     68  C        118.0490   52.1380  119.1970 C.2    42  ALA42       0.2287
     69  O        117.6280   51.0250  118.8630 O.2    42  ALA42      -0.2864
     70  CB       115.7810   53.2140  119.2380 C.3    42  ALA42       0.0319
     71  N        116.4080   44.9390  116.5770 N.3    68  GLU68      -0.1245
     72  CA       116.0760   45.6650  115.3560 C.3    68  GLU68       0.1567
     73  C        116.8760   46.9370  115.1390 C.2    68  GLU68       0.2260
     74  O        117.3660   47.5510  116.0820 O.2    68  GLU68      -0.2867
     75  CB       114.5830   46.0210  115.3140 C.3    68  GLU68       0.0388
     76  CG       114.2810   47.4940  115.5460 C.3    68  GLU68       0.1160
     77  CD       112.8010   47.8010  115.5500 C.2    68  GLU68       0.3649
     78  OE1      112.1520   47.6850  114.4890 O.co2  68  GLU68      -0.2457
     79  OE2      112.2900   48.1590  116.6280 O.co2  68  GLU68      -0.2457
     80  N        117.2850   50.2270  111.7850 N.3    70  ASP70      -0.1225
     81  CA       116.9270   50.7510  110.4580 C.3    70  ASP70       0.1805
     82  C        118.0560   51.3040  109.5760 C.2    70  ASP70       0.2598
     83  O        118.9350   52.0120  110.0440 O.2    70  ASP70      -0.2718
     84  CB       115.8740   51.8510  110.6100 C.3    70  ASP70       0.1424
     85  CG       114.4740   51.3600  110.3540 C.2    70  ASP70       0.3668
     86  OD1      114.2060   50.8780  109.2240 O.co2  70  ASP70      -0.2456
     87  OD2      113.6500   51.4660  111.2880 O.co2  70  ASP70      -0.2456
     88  N        118.0040   50.9780  108.2890 N.am   71  THR71      -0.1953
     89  CA       118.9600   51.4660  107.2940 C.3    71  THR71       0.1897
     90  C        118.0800   52.5110  106.5770 C.2    71  THR71       0.2313
     91  O        117.0050   52.8410  107.0790 O.2    71  THR71      -0.2863
     92  CB       119.3660   50.3170  106.3310 C.3    71  THR71       0.1794
     93  OG1      120.5400   50.6700  105.5950 O.3    71  THR71      -0.2208
     94  CG2      118.2480   50.0260  105.3600 C.3    71  THR71       0.0378
     95  N        114.4880   47.5400  106.1210 N.3    75  HIS75      -0.1241
     96  CA       114.1800   47.3760  107.5350 C.3    75  HIS75       0.1621
     97  C        114.8710   46.1040  107.9840 C.2    75  HIS75       0.2264
     98  O        114.8660   45.0970  107.2650 O.2    75  HIS75      -0.2867
     99  CB       112.6970   47.2140  107.7750 C.3    75  HIS75       0.0745
    100  CG       112.3450   47.1780  109.2210 C.ar   75  HIS75       0.0817
    101  ND1      112.4930   48.2720  110.0420 N.ar   75  HIS75      -0.2268
    102  CD2      111.8810   46.1780  110.0030 C.ar   75  HIS75       0.1154
    103  CE1      112.1300   47.9490  111.2700 C.ar   75  HIS75       0.1986
    104  NE2      111.7550   46.6840  111.2730 N.ar   75  HIS75      -0.2212
    105  N        105.9810   47.2390  118.8770 N.3   263  LYS263     -0.1245
    106  CA       105.2440   48.3140  118.2120 C.3   263  LYS263      0.1561
    107  C        103.9790   47.7550  117.5630 C.2   263  LYS263      0.2260
    108  O        104.0540   47.0310  116.5680 O.2   263  LYS263     -0.2867
    109  CB       106.0940   48.9580  117.1160 C.3   263  LYS263      0.0271
    110  CG       107.5280   49.2600  117.5140 C.3   263  LYS263      0.0035
    111  CD       108.3940   49.5420  116.2920 C.3   263  LYS263      0.0206
    112  CE       109.8640   49.4040  116.6300 C.3   263  LYS263      0.1093
    113  NZ       110.2340   50.1160  117.8960 N.3   263  LYS263     -0.1314
@<TRIPOS>BOND
     1    38    39    1
     2    38    37    1
     3    38    41    1
     4    39    40    2
     5    37    32   am
     6    41    42    1
     7    42    43    1
     8    32    31    1
     9    32    33    2
    10    36    34    1
    11    43    44    1
    12    31    34    1
    13    31    30    1
    14    94    92    1
    15    93    92    1
    16    34    35    1
    17    57    56    1
    18    95    96    1
    19    92    89    1
    20    44    45    1
    21    90    91    2
    22    90    89    1
    23    56    55   ar
    24    56    54   ar
    25    55    53   ar
    26    98    97    2
    27    89    88    1
    28    96    99    1
    29    96    97    1
    30    99   100    1
    31    54    52   ar
    32    53    51   ar
    33    88    82   am
    34    52    51   ar
    35    51    50    1
    36    23    24    2
    37    23    22    1
    38   100   102   ar
    39   100   101   ar
    40    86    85   ar
    41    82    83    2
    42    82    81    1
    43    28    27   ar
    44   102   104   ar
    45    25    22    1
    46    25    26    1
    47   101   103   ar
    48    50    47    1
    49    22    21    1
    50    85    84    1
    51    85    87   ar
    52    81    84    1
    53    81    80    1
    54    19    20   ar
    55    19    17   ar
    56    47    46    1
    57    47    48    1
    58    20    18   ar
    59    27    26    1
    60    27    29   ar
    61   103   104   ar
    62    49    48    2
    63    21    12   am
    64    17    15   ar
    65    48    58   am
    66    13    12    2
    67    18    16   ar
    68    12    11    1
    69    15    16   ar
    70    15    14    1
    71    58    59    1
    72    11    14    1
    73    11    10    1
    74    59    60    1
    75    60    61    2
    76    60    62   am
    77    78    77   ar
    78    62    63    1
    79    73    72    1
    80    73    74    2
    81    63    64    1
    82    75    72    1
    83    75    76    1
    84    72    71    1
    85    76    77    1
    86    77    79   ar
    87   111   112    1
    88   111   110    1
    89   108   107    2
    90   112   113    1
    91    64    65    2
    92    64    66   am
    93   109   110    1
    94   109   106    1
    95    66    67    1
    96   107   106    1
    97     8     7   ar
    98     3     4    2
    99     3     2    1
   100   106   105    1
   101    69    68    2
   102    67    68    1
   103    67    70    1
   104     7     6    1
   105     7     9   ar
   106     5     2    1
   107     5     6    1
   108     2     1    1
