@<TRIPOS>MOLECULE
tmp/1ob2A02.pdb
 162 156 0 0 0
SMALL
GASTEIGER

@<TRIPOS>ATOM
      1  N        132.8160   30.8430  117.9960 N.3    20  VAL20      -0.1231
      2  CA       132.6170   31.4250  119.3040 C.3    20  VAL20       0.1692
      3  C        133.5550   32.5720  119.5950 C.2    20  VAL20       0.2592
      4  O        134.3630   32.9670  118.7600 O.2    20  VAL20      -0.2718
      5  CB       132.8160   30.3800  120.4040 C.3    20  VAL20       0.0266
      6  CG1      131.8850   30.6820  121.5530 C.3    20  VAL20       0.0020
      7  CG2      132.5940   28.9730  119.8550 C.3    20  VAL20       0.0020
      8  N        133.4170   33.0960  120.8060 N.am   21  ASP21      -0.1960
      9  CA       134.2220   34.1900  121.3300 C.3    21  ASP21       0.1840
     10  C        134.7180   35.3010  120.4070 C.2    21  ASP21       0.2622
     11  O        135.4490   36.1830  120.8610 O.2    21  ASP21      -0.2715
     12  CB       135.4180   33.6210  122.0980 C.3    21  ASP21       0.1450
     13  CG       136.4200   34.6910  122.4860 C.2    21  ASP21       0.3671
     14  OD1      137.4630   34.7990  121.7960 O.co2  21  ASP21      -0.2456
     15  OD2      136.1520   35.4360  123.4610 O.co2  21  ASP21      -0.2456
     16  N        134.3500   35.3140  119.1330 N.am   22  HIS22      -0.1959
     17  CA       134.8750   36.4120  118.3550 C.3    22  HIS22       0.1787
     18  C        133.9790   37.2620  117.4790 C.2    22  HIS22       0.2621
     19  O        133.9430   37.0820  116.2710 O.2    22  HIS22      -0.2715
     20  CB       136.1290   35.9690  117.5750 C.3    22  HIS22       0.0785
     21  CG       135.9700   34.7370  116.7350 C.ar   22  HIS22       0.0821
     22  ND1      135.2100   34.7090  115.5870 N.ar   22  HIS22      -0.2267
     23  CD2      136.5970   33.5370  116.7980 C.ar   22  HIS22       0.1154
     24  CE1      135.3830   33.5510  114.9740 C.ar   22  HIS22       0.1986
     25  NE2      136.2220   32.8220  115.6880 N.ar   22  HIS22      -0.2212
     26  N        133.2770   38.2050  118.1110 N.am   23  GLY23      -0.1940
     27  CA       132.4110   39.1260  117.3880 C.3    23  GLY23       0.2014
     28  C        130.9000   39.0810  117.5880 C.2    23  GLY23       0.2639
     29  O        130.3360   39.8110  118.4120 O.2    23  GLY23      -0.2714
     30  N        130.2450   38.2410  116.7910 N.am   24  LYS24      -0.1963
     31  CA       128.8040   38.0600  116.8230 C.3    24  LYS24       0.1728
     32  C        128.0470   38.9760  117.7690 C.2    24  LYS24       0.2617
     33  O        127.6690   40.0900  117.4090 O.2    24  LYS24      -0.2715
     34  CB       128.4610   36.6080  117.1700 C.3    24  LYS24       0.0311
     35  CG       128.5760   35.6160  116.0270 C.3    24  LYS24       0.0038
     36  CD       128.5360   34.2090  116.5580 C.3    24  LYS24       0.0206
     37  CE       129.7060   33.9990  117.4970 C.3    24  LYS24       0.1093
     38  NZ       129.6390   32.7660  118.3150 N.3    24  LYS24      -0.1314
     39  N        127.8500   38.5010  118.9910 N.am   25  THR25      -0.1937
     40  CA       127.0690   39.2260  119.9780 C.3    25  THR25       0.2028
     41  C        127.4360   40.6600  120.2950 C.2    25  THR25       0.2642
     42  O        126.5870   41.4010  120.7720 O.2    25  THR25      -0.2714
     43  CB       126.9870   38.4550  121.2900 C.3    25  THR25       0.1808
     44  OG1      126.6520   37.0810  121.0220 O.3    25  THR25      -0.2208
     45  CG2      125.9160   39.0710  122.1620 C.3    25  THR25       0.0379
     46  N        128.6760   41.0680  120.0600 N.am   26  THR26      -0.1950
     47  CA       129.0220   42.4550  120.3480 C.3    26  THR26       0.1897
     48  C        128.8200   43.2620  119.0870 C.2    26  THR26       0.2313
     49  O        128.4170   44.4190  119.1500 O.2    26  THR26      -0.2863
     50  CB       130.4710   42.6270  120.7910 C.3    26  THR26       0.1794
     51  OG1      131.3270   42.0810  119.7860 O.3    26  THR26      -0.2208
     52  CG2      130.7210   41.9400  122.1280 C.3    26  THR26       0.0378
     53  N        125.3440   45.3200  125.0500 N.3    46  PHE46      -0.1241
     54  CA       125.6380   43.9210  125.3240 C.3    46  PHE46       0.1605
     55  C        124.7230   43.4890  126.4560 C.2    46  PHE46       0.2264
     56  O        123.8760   42.6240  126.2850 O.2    46  PHE46      -0.2867
     57  CB       127.0830   43.7590  125.7550 C.3    46  PHE46       0.0534
     58  CG       127.5840   42.3760  125.6190 C.ar   46  PHE46      -0.0203
     59  CD1      128.3570   42.0150  124.5260 C.ar   46  PHE46      -0.0042
     60  CD2      127.2680   41.4190  126.5700 C.ar   46  PHE46      -0.0042
     61  CE1      128.8200   40.7120  124.3770 C.ar   46  PHE46      -0.0003
     62  CE2      127.7210   40.0980  126.4410 C.ar   46  PHE46      -0.0003
     63  CZ       128.5020   39.7440  125.3390 C.ar   46  PHE46      -0.0000
     64  N        122.7800   39.9440  125.5720 N.3    50  ASP50      -0.1239
     65  CA       122.9700   38.7040  126.3080 C.3    50  ASP50       0.1674
     66  C        122.3750   38.9510  127.7090 C.2    50  ASP50       0.2266
     67  O        123.0440   38.7860  128.7260 O.2    50  ASP50      -0.2867
     68  CB       124.4590   38.3560  126.4050 C.3    50  ASP50       0.1410
     69  CG       124.9570   37.5820  125.1940 C.2    50  ASP50       0.3668
     70  OD1      124.1030   37.1880  124.3560 O.co2  50  ASP50      -0.2456
     71  OD2      126.1940   37.3600  125.0900 O.co2  50  ASP50      -0.2456
     72  N        129.4730   34.1570  130.1520 N.3    59  GLY59      -0.1210
     73  CA       129.9760   35.0080  129.0730 C.3    59  GLY59       0.1956
     74  C        130.0010   34.3040  127.7280 C.2    59  GLY59       0.2612
     75  O        131.0520   34.2290  127.0860 O.2    59  GLY59      -0.2717
     76  N        128.8420   33.8280  127.2720 N.am   60  ILE60      -0.1965
     77  CA       128.8530   33.0810  126.0390 C.3    60  ILE60       0.1727
     78  C        127.6330   32.9920  125.1190 C.2    60  ILE60       0.2616
     79  O        127.7100   32.3320  124.0770 O.2    60  ILE60      -0.2715
     80  CB       129.3470   31.6560  126.3530 C.3    60  ILE60       0.0290
     81  CG1      130.2890   31.1910  125.2410 C.3    60  ILE60       0.0022
     82  CG2      128.1650   30.7210  126.5850 C.3    60  ILE60       0.0023
     83  CD1      131.5260   32.1110  125.0350 C.3    60  ILE60       0.0001
     84  N        126.5170   33.6270  125.4610 N.am   61  THR61      -0.1951
     85  CA       125.3480   33.5590  124.5560 C.3    61  THR61       0.1897
     86  C        124.8260   32.1260  124.3530 C.2    61  THR61       0.2313
     87  O        125.4440   31.3030  123.6680 O.2    61  THR61      -0.2863
     88  CB       125.6820   34.1500  123.1380 C.3    61  THR61       0.1794
     89  OG1      125.7510   35.5780  123.2040 O.3    61  THR61      -0.2208
     90  CG2      124.6300   33.7460  122.1190 C.3    61  THR61       0.0378
     91  N        123.0690   34.7100  116.9300 N.3    81  CYS81      -0.1235
     92  CA       123.2230   33.2940  117.2110 C.3    81  CYS81       0.1677
     93  C        124.3560   32.9970  118.1720 C.2    81  CYS81       0.2270
     94  O        125.2620   33.8180  118.3770 O.2    81  CYS81      -0.2867
     95  CB       123.4530   32.5190  115.9290 C.3    81  CYS81       0.0956
     96  SG       122.0280   32.5070  114.8660 S.3    81  CYS81      -0.0801
     97  N        127.5930   30.8000  119.1240 N.3    83  GLY83      -0.1210
     98  CA       128.5970   30.0340  118.4190 C.3    83  GLY83       0.1956
     99  C        128.9640   28.7480  119.1190 C.2    83  GLY83       0.2611
    100  O        129.4680   27.8290  118.4820 O.2    83  GLY83      -0.2717
    101  N        128.7120   28.6740  120.4220 N.am   84  HIS84      -0.1975
    102  CA       129.0520   27.4740  121.1770 C.3    84  HIS84       0.1656
    103  C        128.5230   26.2290  120.4940 C.2    84  HIS84       0.2291
    104  O        127.3790   26.1950  120.0300 O.2    84  HIS84      -0.2864
    105  CB       128.4990   27.5380  122.5940 C.3    84  HIS84       0.0771
    106  CG       129.3590   26.8370  123.5950 C.ar   84  HIS84       0.0820
    107  ND1      129.9050   25.5950  123.3600 N.ar   84  HIS84      -0.2267
    108  CD2      129.7960   27.2180  124.8180 C.ar   84  HIS84       0.1154
    109  CE1      130.6460   25.2440  124.3940 C.ar   84  HIS84       0.1986
    110  NE2      130.5980   26.2110  125.2930 N.ar   84  HIS84      -0.2212
    111  N        136.6400   40.6500  112.1540 N.3   135  ASN135     -0.1225
    112  CA       136.5200   41.4050  113.3870 C.3   135  ASN135      0.1785
    113  C        137.8380   41.4370  114.1230 C.2   135  ASN135      0.2597
    114  O        138.7610   40.6650  113.8190 O.2   135  ASN135     -0.2718
    115  CB       135.4390   40.7790  114.2790 C.3   135  ASN135      0.1169
    116  CG       134.9440   41.7240  115.3710 C.2   135  ASN135      0.2627
    117  OD1      134.6050   41.2810  116.4690 O.2   135  ASN135     -0.2716
    118  ND2      134.8780   43.0190  115.0700 N.am  135  ASN135     -0.0877
    119  N        137.9060   42.3430  115.0970 N.am  136  LYS136     -0.1980
    120  CA       139.0810   42.5180  115.9300 C.3   136  LYS136      0.1596
    121  C        140.2770   43.0070  115.1010 C.2   136  LYS136      0.2287
    122  O        141.4240   42.6460  115.3530 O.2   136  LYS136     -0.2864
    123  CB       139.4040   41.1920  116.6330 C.3   136  LYS136      0.0298
    124  CG       138.2680   40.6220  117.4840 C.3   136  LYS136      0.0038
    125  CD       138.6310   39.2510  118.0330 C.3   136  LYS136      0.0206
    126  CE       137.5740   38.7010  118.9930 C.3   136  LYS136      0.1093
    127  NZ       137.5250   39.4410  120.2730 N.3   136  LYS136     -0.1314
    128  N        141.3850   45.6450  115.2690 N.3   138  ASP138     -0.1225
    129  CA       142.0480   46.5620  116.1760 C.3   138  ASP138      0.1805
    130  C        143.0090   45.7440  117.0460 C.2   138  ASP138      0.2597
    131  O        143.3360   46.1250  118.1690 O.2   138  ASP138     -0.2718
    132  CB       141.0000   47.2370  117.0580 C.3   138  ASP138      0.1424
    133  CG       140.3650   46.2700  118.0350 C.2   138  ASP138      0.3668
    134  OD1      140.0550   45.1350  117.6130 O.co2 138  ASP138     -0.2456
    135  OD2      140.1770   46.6400  119.2150 O.co2 138  ASP138     -0.2456
    136  N        143.4530   44.6080  116.5290 N.am  139  MET139     -0.1979
    137  CA       144.3510   43.7520  117.2820 C.3   139  MET139      0.1605
    138  C        145.4120   43.2330  116.3480 C.2   139  MET139      0.2287
    139  O        146.3370   42.5250  116.7510 O.2   139  MET139     -0.2864
    140  CB       143.5790   42.5780  117.8890 C.3   139  MET139      0.0413
    141  CG       143.8310   42.4020  119.3670 C.3   139  MET139      0.0598
    142  SD       143.4660   43.9400  120.2400 S.3   139  MET139     -0.1393
    143  CE       143.0000   43.2980  121.8640 C.3   139  MET139      0.0692
    144  N        136.0980   46.6420  113.7030 N.3   173  SER173     -0.1202
    145  CA       136.0980   46.1620  115.0740 C.3   173  SER173      0.2020
    146  C        134.8160   46.5500  115.7760 C.2   173  SER173      0.2619
    147  O        134.4230   47.7190  115.7890 O.2   173  SER173     -0.2717
    148  CB       137.2740   46.7480  115.8510 C.3   173  SER173      0.2103
    149  OG       136.9720   46.7770  117.2390 O.3   173  SER173     -0.2182
    150  N        134.1790   45.5640  116.3850 N.am  174  ALA174     -0.1965
    151  CA       132.9330   45.8030  117.0920 C.3   174  ALA174      0.1728
    152  C        133.0300   46.7370  118.3280 C.2   174  ALA174      0.2616
    153  O        132.4970   47.8560  118.3210 O.2   174  ALA174     -0.2715
    154  CB       132.3110   44.4530  117.4780 C.3   174  ALA174      0.0334
    155  N        133.6950   46.2830  119.3870 N.am  175  LEU175     -0.1977
    156  CA       133.7900   47.1130  120.5830 C.3   175  LEU175      0.1596
    157  C        134.3970   48.4690  120.2930 C.2   175  LEU175      0.2287
    158  O        134.0620   49.4590  120.9510 O.2   175  LEU175     -0.2864
    159  CB       134.5800   46.4190  121.7020 C.3   175  LEU175      0.0297
    160  CG       135.7590   45.5180  121.3570 C.3   175  LEU175      0.0022
    161  CD1      136.6490   46.1600  120.3170 C.3   175  LEU175      0.0001
    162  CD2      136.5170   45.2250  122.6320 C.3   175  LEU175      0.0001
@<TRIPOS>BOND
     1   111   112    1
     2   112   113    1
     3   112   115    1
     4   144   145    1
     5   114   113    2
     6   113   119   am
     7   115   116    1
     8    96    95    1
     9    24    22   ar
    10    24    25   ar
    11   118   116   am
    12   145   146    1
    13   145   148    1
    14   119   120    1
    15   121   122    2
    16   121   120    1
    17   128   129    1
    18   116   117    2
    19    22    21   ar
    20    25    23   ar
    21   146   147    2
    22   146   150   am
    23   148   149    1
    24    95    92    1
    25   120   123    1
    26    35    36    1
    27    35    34    1
    28   129   130    1
    29   129   132    1
    30    19    18    2
    31   138   139    2
    32   138   137    1
    33   150   151    1
    34   136   130   am
    35   136   137    1
    36    36    37    1
    37   123   124    1
    38    21    23   ar
    39    21    20    1
    40    30    31    1
    41    30    28   am
    42    31    34    1
    43    31    32    1
    44    91    92    1
    45   130   131    2
    46   132   133    1
    47   151   154    1
    48   151   152    1
    49    92    93    1
    50   137   140    1
    51    27    28    1
    52    27    26    1
    53    33    32    2
    54    18    26   am
    55    18    17    1
    56   124   125    1
    57    37    38    1
    58    20    17    1
    59    28    29    2
    60   134   133   ar
    61    32    39   am
    62   140   141    1
    63     1     2    1
    64   125   126    1
    65   133   135   ar
    66    93    94    2
    67   153   152    2
    68   152   155   am
    69    17    16    1
    70    98    99    1
    71    98    97    1
    72   100    99    2
    73     4     3    2
    74    39    40    1
    75   126   127    1
    76    48    49    2
    77    48    47    1
    78    99   101   am
    79    16    10   am
    80     2     3    1
    81     2     5    1
    82   141   142    1
    83   155   156    1
    84     3     8   am
    85    51    50    1
    86     7     5    1
    87    40    41    1
    88    40    43    1
    89   104   103    2
    90    46    41   am
    91    46    47    1
    92   142   143    1
    93   157   156    1
    94   157   158    2
    95    41    42    2
    96   161   160    1
    97    47    50    1
    98     5     6    1
    99    10    11    2
   100    10     9    1
   101   101   102    1
   102   103   102    1
   103   156   159    1
   104    50    52    1
   105     8     9    1
   106    44    43    1
   107   102   105    1
   108    43    45    1
   109     9    12    1
   110   160   159    1
   111   160   162    1
   112    14    13   ar
   113    12    13    1
   114    90    88    1
   115    13    15   ar
   116   105   106    1
   117    88    89    1
   118    88    85    1
   119   107   106   ar
   120   107   109   ar
   121   106   108   ar
   122    87    86    2
   123    79    78    2
   124    86    85    1
   125    70    69   ar
   126    61    59   ar
   127    61    63   ar
   128   109   110   ar
   129    59    58   ar
   130    85    84    1
   131   108   110   ar
   132    83    81    1
   133    53    54    1
   134    71    69   ar
   135    78    84   am
   136    78    77    1
   137    69    68    1
   138    81    80    1
   139    54    57    1
   140    54    55    1
   141    63    62   ar
   142    64    65    1
   143    58    57    1
   144    58    60   ar
   145    77    80    1
   146    77    76    1
   147    56    55    2
   148    65    68    1
   149    65    66    1
   150    80    82    1
   151    62    60   ar
   152    75    74    2
   153    76    74   am
   154    66    67    2
   155    74    73    1
   156    73    72    1
