@<TRIPOS>MOLECULE
tmp/1obbA01.pdb
 123 117 0 0 0
SMALL
GASTEIGER

@<TRIPOS>ATOM
      1  N         24.3490   31.6900   14.8190 N.3   116  VAL116     -0.1245
      2  CA        24.6270   31.7280   16.2560 C.3   116  VAL116      0.1561
      3  C         23.4350   31.1110   17.0040 C.2   116  VAL116      0.2260
      4  O         22.3170   31.6350   16.9830 O.2   116  VAL116     -0.2867
      5  CB        24.9490   33.1700   16.7210 C.3   116  VAL116      0.0252
      6  CG1       25.1080   33.1880   18.2540 C.3   116  VAL116      0.0019
      7  CG2       26.2900   33.6590   16.0270 C.3   116  VAL116      0.0019
      8  N         22.2140   30.9180   19.9940 N.3   118  ASP118     -0.1239
      9  CA        21.3500   31.5480   20.9730 C.3   118  ASP118      0.1674
     10  C         21.0000   32.9450   20.4890 C.2   118  ASP118      0.2266
     11  O         20.7590   33.8590   21.2780 O.2   118  ASP118     -0.2867
     12  CB        22.0210   31.5960   22.3570 C.3   118  ASP118      0.1410
     13  CG        23.3620   32.3650   22.3650 C.2   118  ASP118      0.3668
     14  OD1       23.9740   32.6020   21.3010 O.co2 118  ASP118     -0.2456
     15  OD2       23.8230   32.7140   23.4710 O.co2 118  ASP118     -0.2456
     16  N         21.1770   38.8490   23.6550 N.3   152  ASN152     -0.1240
     17  CA        20.8790   38.6140   22.2420 C.3   152  ASN152      0.1653
     18  C         19.3720   38.4860   22.0680 C.2   152  ASN152      0.2266
     19  O         18.6740   38.0760   22.9930 O.2   152  ASN152     -0.2867
     20  CB        21.5480   37.3220   21.7370 C.3   152  ASN152      0.1155
     21  CG        23.0580   37.3910   21.7960 C.2   152  ASN152      0.2627
     22  OD1       23.6380   38.4350   21.6070 O.2   152  ASN152     -0.2716
     23  ND2       23.7000   36.2530   22.0320 N.am  152  ASN152     -0.0877
     24  N         21.2760   41.1920   19.8560 N.3   154  ILE154     -0.1245
     25  CA        21.6430   42.6180   19.9420 C.3   154  ILE154      0.1561
     26  C         21.2390   43.4420   18.7260 C.2   154  ILE154      0.2260
     27  O         20.7070   44.5610   18.8770 O.2   154  ILE154     -0.2867
     28  CB        23.1720   42.7870   20.2230 C.3   154  ILE154      0.0252
     29  CG1       23.4130   42.4780   21.7050 C.3   154  ILE154      0.0019
     30  CG2       23.6570   44.2220   19.9000 C.3   154  ILE154      0.0019
     31  CD1       24.8600   42.3980   22.0670 C.3   154  ILE154      0.0001
     32  N         31.5190   41.8170   22.8100 N.3   173  HIS173     -0.1226
     33  CA        32.9560   41.5270   22.8650 C.3   173  HIS173      0.1752
     34  C         33.5070   40.9710   21.5400 C.2   173  HIS173      0.2596
     35  O         34.7120   40.7290   21.4130 O.2   173  HIS173     -0.2718
     36  CB        33.1860   40.5090   23.9770 C.3   173  HIS173      0.0759
     37  CG        32.1480   39.4300   24.0000 C.ar  173  HIS173      0.0818
     38  ND1       32.1620   38.3640   23.1220 N.ar  173  HIS173     -0.2268
     39  CD2       31.0090   39.3030   24.7260 C.ar  173  HIS173      0.1154
     40  CE1       31.0790   37.6280   23.3070 C.ar  173  HIS173      0.1986
     41  NE2       30.3610   38.1760   24.2730 N.ar  173  HIS173     -0.2212
     42  N         32.6210   40.7820   20.5620 N.am  174  GLY174     -0.1957
     43  CA        33.0080   40.2400   19.2650 C.3   174  GLY174      0.1869
     44  C         34.2780   40.7450   18.5890 C.2   174  GLY174      0.2309
     45  O         35.0510   39.9530   18.0400 O.2   174  GLY174     -0.2863
     46  N         27.5790   40.7760   15.3330 N.3   201  HIS201     -0.1241
     47  CA        27.8660   39.4310   14.8210 C.3   201  HIS201      0.1621
     48  C         27.8810   39.4490   13.2810 C.2   201  HIS201      0.2264
     49  O         27.6510   38.4270   12.6130 O.2   201  HIS201     -0.2867
     50  CB        26.8250   38.4100   15.3100 C.3   201  HIS201      0.0745
     51  CG        26.8720   38.1790   16.7880 C.ar  201  HIS201      0.0817
     52  ND1       26.0240   37.3120   17.4400 N.ar  201  HIS201     -0.2268
     53  CD2       27.6510   38.7350   17.7440 C.ar  201  HIS201      0.1154
     54  CE1       26.2790   37.3440   18.7350 C.ar  201  HIS201      0.1986
     55  NE2       27.2610   38.2020   18.9460 N.ar  201  HIS201     -0.2212
     56  N         34.5230   27.6220   19.7090 N.3   236  PHE236     -0.1241
     57  CA        34.4260   29.0320   19.3200 C.3   236  PHE236      0.1605
     58  C         35.6870   29.6440   18.7190 C.2   236  PHE236      0.2264
     59  O         35.6570   30.7990   18.2480 O.2   236  PHE236     -0.2867
     60  CB        34.0450   29.8830   20.5400 C.3   236  PHE236      0.0534
     61  CG        32.6960   29.5700   21.1090 C.ar  236  PHE236     -0.0203
     62  CD1       31.5640   30.2380   20.6420 C.ar  236  PHE236     -0.0042
     63  CD2       32.5550   28.6410   22.1410 C.ar  236  PHE236     -0.0042
     64  CE1       30.3100   29.9950   21.1940 C.ar  236  PHE236     -0.0003
     65  CE2       31.3060   28.3890   22.7010 C.ar  236  PHE236     -0.0003
     66  CZ        30.1820   29.0650   22.2310 C.ar  236  PHE236     -0.0000
     67  N         35.1280   37.7540   14.7170 N.3   257  GLY257     -0.1210
     68  CA        34.3410   37.1760   15.7980 C.3   257  GLY257      0.1956
     69  C         33.2270   36.2570   15.3300 C.2   257  GLY257      0.2611
     70  O         33.4220   35.4200   14.4490 O.2   257  GLY257     -0.2717
     71  N         32.0450   36.4340   15.9160 N.am  258  ASP258     -0.1973
     72  CA        30.8820   35.6080   15.5920 C.3   258  ASP258      0.1709
     73  C         30.4380   35.7430   14.1610 C.2   258  ASP258      0.2293
     74  O         29.6320   34.9510   13.6880 O.2   258  ASP258     -0.2864
     75  CB        29.7340   35.9450   16.5500 C.3   258  ASP258      0.1436
     76  CG        30.1460   35.7420   17.9790 C.2   258  ASP258      0.3671
     77  OD1       30.3460   34.5650   18.3460 O.co2 258  ASP258     -0.2456
     78  OD2       30.3100   36.7420   18.7230 O.co2 258  ASP258     -0.2456
     79  N         30.8880   32.5100   12.3180 N.3   261  ARG261     -0.1245
     80  CA        29.8320   31.5110   12.4760 C.3   261  ARG261      0.1563
     81  C         28.6650   31.8490   11.5410 C.2   261  ARG261      0.2260
     82  O         27.9970   30.9560   10.9910 O.2   261  ARG261     -0.2867
     83  CB        29.3030   31.5350   13.9180 C.3   261  ARG261      0.0307
     84  CG        30.3690   31.3020   14.9850 C.3   261  ARG261      0.0489
     85  CD        29.8680   31.8060   16.3550 C.3   261  ARG261      0.2205
     86  NE        28.8130   30.9730   16.9400 N.pl3 261  ARG261     -0.0865
     87  CZ        28.2980   31.1930   18.1480 C.cat 261  ARG261      0.5346
     88  NH1       28.7340   32.2180   18.8780 N.pl3 261  ARG261      0.1354
     89  NH2       27.3930   30.3700   18.6480 N.pl3 261  ARG261      0.1354
     90  N         27.7360   22.8280   20.3480 N.3   291  TRP291     -0.1241
     91  CA        26.7820   23.5630   21.1810 C.3   291  TRP291      0.1605
     92  C         26.5900   22.8580   22.5360 C.2   291  TRP291      0.2264
     93  O         26.3910   23.5160   23.5640 O.2   291  TRP291     -0.2867
     94  CB        25.4230   23.7100   20.4570 C.3   291  TRP291      0.0550
     95  CG        24.5080   24.6970   21.1200 C.ar  291  TRP291      0.0003
     96  CD1       23.3100   24.4400   21.6960 C.ar  291  TRP291      0.0946
     97  CD2       24.7770   26.0870   21.3470 C.ar  291  TRP291      0.0152
     98  NE1       22.8030   25.5840   22.2850 N.ar  291  TRP291     -0.2442
     99  CE2       23.6880   26.6080   22.0870 C.ar  291  TRP291      0.0810
    100  CE3       25.8330   26.9360   21.0040 C.ar  291  TRP291      0.0012
    101  CZ2       23.6230   27.9530   22.4960 C.ar  291  TRP291      0.0191
    102  CZ3       25.7780   28.2870   21.4120 C.ar  291  TRP291      0.0001
    103  CH2       24.6790   28.7740   22.1500 C.ar  291  TRP291      0.0015
    104  N         29.3210   23.7550   24.6870 N.3   294  TYR294     -0.1241
    105  CA        29.0520   25.0490   25.2920 C.3   294  TYR294      0.1605
    106  C         28.0690   24.9710   26.4610 C.2   294  TYR294      0.2264
    107  O         28.3390   25.4910   27.5470 O.2   294  TYR294     -0.2867
    108  CB        28.5290   26.0250   24.2130 C.3   294  TYR294      0.0534
    109  CG        28.1370   27.3780   24.7510 C.ar  294  TYR294     -0.0201
    110  CD1       29.0720   28.1880   25.3800 C.ar  294  TYR294     -0.0009
    111  CD2       26.8320   27.8450   24.6190 C.ar  294  TYR294     -0.0009
    112  CE1       28.7270   29.4400   25.8630 C.ar  294  TYR294      0.0417
    113  CE2       26.4630   29.1000   25.1000 C.ar  294  TYR294      0.0417
    114  CZ        27.4190   29.8940   25.7180 C.ar  294  TYR294      0.1957
    115  OH        27.0810   31.1420   26.1820 O.3   294  TYR294     -0.2866
    116  N         28.5370   26.0130   30.4920 N.3   298  LEU298     -0.1245
    117  CA        27.6720   26.9460   31.2040 C.3   298  LEU298      0.1561
    118  C         27.0990   26.3170   32.4630 C.2   298  LEU298      0.2260
    119  O         27.0260   26.9720   33.5110 O.2   298  LEU298     -0.2867
    120  CB        26.5180   27.4350   30.3210 C.3   298  LEU298      0.0270
    121  CG        26.8130   28.4510   29.2140 C.3   298  LEU298      0.0019
    122  CD1       25.5030   28.8460   28.5360 C.3   298  LEU298      0.0001
    123  CD2       27.4920   29.6970   29.7950 C.3   298  LEU298      0.0001
@<TRIPOS>BOND
     1    82    81    2
     2    81    80    1
     3    79    80    1
     4    80    83    1
     5    49    48    2
     6    48    47    1
     7    74    73    2
     8    83    84    1
     9    73    72    1
    10    70    69    2
    11    67    68    1
    12     1     2    1
    13    47    50    1
    14    47    46    1
    15    84    85    1
    16    50    51    1
    17    69    68    1
    18    69    71   am
    19    72    71    1
    20    72    75    1
    21     7     5    1
    22     2     5    1
    23     2     3    1
    24    85    86    1
    25    75    76    1
    26     5     6    1
    27    51    52   ar
    28    51    53   ar
    29    86    87    2
    30     4     3    2
    31    52    54   ar
    32    53    55   ar
    33    76    77   ar
    34    76    78   ar
    35    45    44    2
    36    87    89    1
    37    87    88    1
    38    59    58    2
    39    44    43    1
    40    58    57    1
    41    26    27    2
    42    26    25    1
    43    54    55   ar
    44    43    42    1
    45    57    56    1
    46    57    60    1
    47    24    25    1
    48    30    28    1
    49    25    28    1
    50     8     9    1
    51    28    29    1
    52    90    91    1
    53    94    95    1
    54    94    91    1
    55    10     9    1
    56    10    11    2
    57    60    61    1
    58    42    34   am
    59    62    61   ar
    60    62    64   ar
    61     9    12    1
    62   100    97   ar
    63   100   102   ar
    64    61    63   ar
    65    95    97   ar
    66    95    96   ar
    67    91    92    1
    68    64    66   ar
    69    14    13   ar
    70    97    99   ar
    71   102   103   ar
    72    35    34    2
    73    34    33    1
    74    22    21    2
    75    96    98   ar
    76    29    31    1
    77    20    21    1
    78    20    17    1
    79    21    23   am
    80    18    17    1
    81    18    19    2
    82    99    98   ar
    83    99   101   ar
    84    63    65   ar
    85   103   101   ar
    86    66    65   ar
    87    17    16    1
    88    12    13    1
    89    13    15   ar
    90    92    93    2
    91    32    33    1
    92    33    36    1
    93    38    40   ar
    94    38    37   ar
    95    40    41   ar
    96    36    37    1
    97    37    39   ar
    98   108   109    1
    99   108   105    1
   100    41    39   ar
   101   111   109   ar
   102   111   113   ar
   103   104   105    1
   104   109   110   ar
   105   113   114   ar
   106   105   106    1
   107   110   112   ar
   108   114   112   ar
   109   114   115    1
   110   106   107    2
   111   122   121    1
   112   121   123    1
   113   121   120    1
   114   120   117    1
   115   116   117    1
   116   117   118    1
   117   118   119    2
