@<TRIPOS>MOLECULE
tmp/1obbA00.pdb
 206 197 0 0 0
SMALL
GASTEIGER

@<TRIPOS>ATOM
      1  N         19.6820   43.6650   34.8600 N.3     8  ILE8       -0.1231
      2  CA        18.5450   42.7550   34.6240 C.3     8  ILE8        0.1692
      3  C         19.1940   41.4640   34.1170 C.2     8  ILE8        0.2592
      4  O         19.9380   41.4800   33.1290 O.2     8  ILE8       -0.2718
      5  CB        17.5440   43.3810   33.5570 C.3     8  ILE8        0.0266
      6  CG1       16.9490   44.6840   34.1450 C.3     8  ILE8        0.0019
      7  CG2       16.3940   42.3900   33.2040 C.3     8  ILE8        0.0020
      8  CD1       16.0760   45.4950   33.1520 C.3     8  ILE8        0.0001
      9  N         18.9010   40.3470   34.7910 N.am    9  GLY9       -0.1957
     10  CA        19.5270   39.0750   34.4560 C.3     9  GLY9        0.1869
     11  C         20.8240   38.9280   35.2480 C.2     9  GLY9        0.2309
     12  O         21.7300   38.1980   34.8460 O.2     9  GLY9       -0.2863
     13  N         21.7290   37.2210   37.5330 N.3    11  GLY11      -0.1210
     14  CA        22.0660   35.8510   37.8710 C.3    11  GLY11       0.1956
     15  C         23.1770   35.2790   37.0040 C.2    11  GLY11       0.2612
     16  O         23.7100   34.1990   37.2810 O.2    11  GLY11      -0.2717
     17  N         23.5130   35.9880   35.9330 N.am   12  SER12      -0.1952
     18  CA        24.5930   35.5650   35.0510 C.3    12  SER12       0.1924
     19  C         25.8640   36.0690   35.7710 C.2    12  SER12       0.2314
     20  O         26.3530   37.1840   35.5390 O.2    12  SER12      -0.2863
     21  CB        24.4060   36.2260   33.6910 C.3    12  SER12       0.2116
     22  OG        25.3410   35.7260   32.7610 O.3    12  SER12      -0.2180
     23  N         29.5260   37.6110   34.2410 N.3    15  PHE15      -0.1241
     24  CA        29.2270   38.9520   33.7340 C.3    15  PHE15       0.1605
     25  C         29.0290   39.9610   34.8730 C.2    15  PHE15       0.2264
     26  O         29.6790   40.9950   34.9050 O.2    15  PHE15      -0.2867
     27  CB        27.9500   38.9250   32.8780 C.3    15  PHE15       0.0534
     28  CG        27.5940   40.2630   32.2750 C.ar   15  PHE15      -0.0203
     29  CD1       28.3100   40.7690   31.1810 C.ar   15  PHE15      -0.0042
     30  CD2       26.5460   41.0080   32.7870 C.ar   15  PHE15      -0.0042
     31  CE1       27.9740   41.9900   30.6060 C.ar   15  PHE15      -0.0003
     32  CE2       26.2020   42.2450   32.2140 C.ar   15  PHE15      -0.0003
     33  CZ        26.9200   42.7300   31.1190 C.ar   15  PHE15      -0.0000
     34  N         18.9970   42.3470   39.6170 N.3    37  MET37      -0.1230
     35  CA        17.6750   41.7900   39.4390 C.3    37  MET37       0.1702
     36  C         17.6500   40.5030   38.6160 C.2    37  MET37       0.2592
     37  O         18.3900   40.3450   37.6330 O.2    37  MET37      -0.2718
     38  CB        16.7760   42.8630   38.8190 C.3    37  MET37       0.0401
     39  CG        15.3280   42.4340   38.5690 C.3    37  MET37       0.0596
     40  SD        15.0490   41.7680   36.9070 S.3    37  MET37      -0.1393
     41  CE        13.2900   41.3630   36.9940 C.3    37  MET37       0.0692
     42  N         16.8090   39.5650   39.0440 N.am   38  ASP38      -0.1960
     43  CA        16.6350   38.3140   38.3300 C.3    38  ASP38       0.1840
     44  C         15.3000   37.7020   38.7260 C.2    38  ASP38       0.2622
     45  O         14.6300   38.2050   39.6330 O.2    38  ASP38      -0.2715
     46  CB        17.7790   37.3480   38.6330 C.3    38  ASP38       0.1450
     47  CG        18.0440   36.3980   37.4750 C.2    38  ASP38       0.3671
     48  OD1       17.1950   35.5030   37.2280 O.co2  38  ASP38      -0.2456
     49  OD2       19.0820   36.5700   36.7960 O.co2  38  ASP38      -0.2456
     50  N         14.8700   36.6650   38.0130 N.am   39  ILE39      -0.1963
     51  CA        13.6230   35.9990   38.3930 C.3    39  ILE39       0.1727
     52  C         13.9820   34.6900   39.0840 C.2    39  ILE39       0.2616
     53  O         13.1170   34.0200   39.6550 O.2    39  ILE39      -0.2715
     54  CB        12.6880   35.6920   37.1810 C.3    39  ILE39       0.0290
     55  CG1       13.4320   34.8450   36.1380 C.3    39  ILE39       0.0022
     56  CG2       12.1630   37.0020   36.5790 C.3    39  ILE39       0.0023
     57  CD1       12.5870   34.5590   34.9060 C.3    39  ILE39       0.0001
     58  N         15.2630   34.3290   39.0180 N.am   40  ASP40      -0.1971
     59  CA        15.7500   33.1120   39.6440 C.3    40  ASP40       0.1709
     60  C         16.3850   33.4970   40.9920 C.2    40  ASP40       0.2293
     61  O         17.5540   33.8680   41.0450 O.2    40  ASP40      -0.2864
     62  CB        16.7890   32.4400   38.7510 C.3    40  ASP40       0.1436
     63  CG        17.3000   31.1410   39.3360 C.2    40  ASP40       0.3671
     64  OD1       17.5290   31.0740   40.5650 O.co2  40  ASP40      -0.2456
     65  OD2       17.4950   30.1840   38.5620 O.co2  40  ASP40      -0.2456
     66  N         20.0020   31.9120   41.8850 N.3    43  ARG43      -0.1245
     67  CA        21.0970   32.5100   41.1240 C.3    43  ARG43       0.1563
     68  C         21.3090   33.9580   41.5860 C.2    43  ARG43       0.2260
     69  O         22.4410   34.4310   41.6810 O.2    43  ARG43      -0.2867
     70  CB        20.7880   32.4440   39.6170 C.3    43  ARG43       0.0307
     71  CG        20.5660   31.0230   39.1060 C.3    43  ARG43       0.0489
     72  CD        20.5060   30.9920   37.5950 C.3    43  ARG43       0.2205
     73  NE        21.7660   31.4630   37.0160 N.pl3  43  ARG43      -0.0865
     74  CZ        21.9790   31.6250   35.7110 C.cat  43  ARG43       0.5346
     75  NH1       21.0160   31.3500   34.8380 N.pl3  43  ARG43       0.1354
     76  NH2       23.1560   32.0690   35.2770 N.pl3  43  ARG43       0.1354
     77  N         20.9550   41.8300   30.5070 N.3    83  THR83      -0.1203
     78  CA        21.6230   40.6190   30.0880 C.3    83  THR83       0.1994
     79  C         20.6640   39.4130   30.2570 C.2    83  THR83       0.2618
     80  O         21.1000   38.2740   30.1730 O.2    83  THR83      -0.2717
     81  CB        22.9430   40.4030   30.8920 C.3    83  THR83       0.1784
     82  OG1       23.7090   39.3470   30.2840 O.3    83  THR83      -0.2211
     83  CG2       22.6580   40.0760   32.3340 C.3    83  THR83       0.0376
     84  N         19.3600   39.6670   30.4370 N.am   84  ALA84      -0.1965
     85  CA        18.3930   38.5730   30.6020 C.3    84  ALA84       0.1728
     86  C         18.0560   37.7670   29.3290 C.2    84  ALA84       0.2616
     87  O         18.0100   38.3140   28.2420 O.2    84  ALA84      -0.2715
     88  CB        17.0880   39.1220   31.2020 C.3    84  ALA84       0.0334
     89  N         17.8270   36.4600   29.4640 N.am   85  MET85      -0.1963
     90  CA        17.4030   35.6600   28.3080 C.3    85  MET85       0.1736
     91  C         16.0730   34.9970   28.6980 C.2    85  MET85       0.2616
     92  O         16.0510   33.9490   29.3310 O.2    85  MET85      -0.2715
     93  CB        18.4230   34.5820   27.9210 C.3    85  MET85       0.0427
     94  CG        17.9140   33.7670   26.7140 C.3    85  MET85       0.0599
     95  SD        19.0740   32.6250   25.9160 S.3    85  MET85      -0.1393
     96  CE        19.5540   31.6200   27.2890 C.3    85  MET85       0.0692
     97  N         14.9670   35.6290   28.3250 N.am   86  VAL86      -0.1963
     98  CA        13.6450   35.1140   28.6520 C.3    86  VAL86       0.1727
     99  C         13.5140   33.7070   28.0660 C.2    86  VAL86       0.2617
    100  O         13.7820   33.4940   26.8770 O.2    86  VAL86      -0.2715
    101  CB        12.5380   36.0070   28.0660 C.3    86  VAL86       0.0290
    102  CG1       11.1540   35.3950   28.3730 C.3    86  VAL86       0.0023
    103  CG2       12.6420   37.4130   28.6530 C.3    86  VAL86       0.0023
    104  N         13.1070   32.7700   28.9240 N.am   87  GLY87      -0.1940
    105  CA        12.9440   31.3800   28.5300 C.3    87  GLY87       0.2014
    106  C         14.1940   30.5370   28.7430 C.2    87  GLY87       0.2639
    107  O         14.1110   29.2970   28.8230 O.2    87  GLY87      -0.2714
    108  N         15.3540   31.1960   28.8350 N.am   88  GLY88      -0.1939
    109  CA        16.6170   30.4890   29.0340 C.3    88  GLY88       0.2014
    110  C         16.9720   29.4560   27.9650 C.2    88  GLY88       0.2638
    111  O         16.3940   29.4170   26.8850 O.2    88  GLY88      -0.2714
    112  N         17.9290   28.5960   28.2650 N.am   89  HIS89      -0.1973
    113  CA        18.3250   27.5920   27.2980 C.3    89  HIS89       0.1656
    114  C         17.2850   26.4920   27.1030 C.2    89  HIS89       0.2291
    115  O         17.2820   25.8060   26.0780 O.2    89  HIS89      -0.2864
    116  CB        19.6760   27.0040   27.6840 C.3    89  HIS89       0.0771
    117  CG        20.7910   27.9900   27.5580 C.ar   89  HIS89       0.0820
    118  ND1       21.0780   28.9210   28.5360 N.ar   89  HIS89      -0.2267
    119  CD2       21.6230   28.2610   26.5260 C.ar   89  HIS89       0.1154
    120  CE1       22.0340   29.7250   28.1080 C.ar   89  HIS89       0.1986
    121  NE2       22.3810   29.3480   26.8900 N.ar   89  HIS89      -0.2212
    122  N         22.2140   30.9180   19.9940 N.3   118  ASP118     -0.1239
    123  CA        21.3500   31.5480   20.9730 C.3   118  ASP118      0.1674
    124  C         21.0000   32.9450   20.4890 C.2   118  ASP118      0.2266
    125  O         20.7590   33.8590   21.2780 O.2   118  ASP118     -0.2867
    126  CB        22.0210   31.5960   22.3570 C.3   118  ASP118      0.1410
    127  CG        23.3620   32.3650   22.3650 C.2   118  ASP118      0.3668
    128  OD1       23.9740   32.6020   21.3010 O.co2 118  ASP118     -0.2456
    129  OD2       23.8230   32.7140   23.4710 O.co2 118  ASP118     -0.2456
    130  N         11.2770   37.2510   24.3310 N.3   127  GLN127     -0.1245
    131  CA        12.5320   37.9700   24.5690 C.3   127  GLN127      0.1566
    132  C         12.4420   39.3930   23.9830 C.2   127  GLN127      0.2260
    133  O         12.7480   40.3700   24.6750 O.2   127  GLN127     -0.2867
    134  CB        13.7230   37.1930   23.9450 C.3   127  GLN127      0.0367
    135  CG        15.0970   37.9340   23.9950 C.3   127  GLN127      0.0905
    136  CD        15.7530   37.8710   25.3580 C.2   127  GLN127      0.2608
    137  OE1       15.0670   37.8190   26.3830 O.2   127  GLN127     -0.2717
    138  NE2       17.0920   37.9080   25.3860 N.am  127  GLN127     -0.0878
    139  N         10.2460   41.5930   25.9510 N.3   130  TYR130     -0.1241
    140  CA        10.8550   42.0310   27.2190 C.3   130  TYR130      0.1605
    141  C         11.7430   43.2570   26.9860 C.2   130  TYR130      0.2264
    142  O         11.7550   44.1780   27.8010 O.2   130  TYR130     -0.2867
    143  CB        11.6740   40.8970   27.8240 C.3   130  TYR130      0.0534
    144  CG        11.8420   40.9890   29.3390 C.ar  130  TYR130     -0.0201
    145  CD1       10.7470   41.2290   30.1760 C.ar  130  TYR130     -0.0009
    146  CD2       13.0880   40.7840   29.9240 C.ar  130  TYR130     -0.0009
    147  CE1       10.8970   41.2580   31.5790 C.ar  130  TYR130      0.0417
    148  CE2       13.2680   40.8110   31.3180 C.ar  130  TYR130      0.0417
    149  CZ        12.1720   41.0440   32.1410 C.ar  130  TYR130      0.1957
    150  OH        12.3350   41.0400   33.5120 O.3   130  TYR130     -0.2866
    151  N         22.8330   43.9940   26.4450 N.3   150  ALA150     -0.1231
    152  CA        23.9050   42.9980   26.4010 C.3   150  ALA150      0.1694
    153  C         23.3440   41.6560   25.8850 C.2   150  ALA150      0.2592
    154  O         24.0390   40.8650   25.2230 O.2   150  ALA150     -0.2718
    155  CB        24.5110   42.8180   27.7950 C.3   150  ALA150      0.0304
    156  N         22.0700   41.4120   26.1410 N.am  151  ALA151     -0.1966
    157  CA        21.4380   40.1650   25.6950 C.3   151  ALA151      0.1728
    158  C         21.1700   40.0690   24.1890 C.2   151  ALA151      0.2616
    159  O         20.9260   41.0790   23.5190 O.2   151  ALA151     -0.2715
    160  CB        20.1110   39.9610   26.4520 C.3   151  ALA151      0.0334
    161  N         21.1770   38.8490   23.6550 N.am  152  ASN152     -0.1972
    162  CA        20.8790   38.6140   22.2420 C.3   152  ASN152      0.1688
    163  C         19.3720   38.4860   22.0680 C.2   152  ASN152      0.2292
    164  O         18.6740   38.0760   22.9930 O.2   152  ASN152     -0.2864
    165  CB        21.5480   37.3220   21.7370 C.3   152  ASN152      0.1181
    166  CG        23.0580   37.3910   21.7960 C.2   152  ASN152      0.2629
    167  OD1       23.6380   38.4350   21.6070 O.2   152  ASN152     -0.2716
    168  ND2       23.7000   36.2530   22.0320 N.am  152  ASN152     -0.0877
    169  N         21.2760   41.1920   19.8560 N.3   154  ILE154     -0.1245
    170  CA        21.6430   42.6180   19.9420 C.3   154  ILE154      0.1561
    171  C         21.2390   43.4420   18.7260 C.2   154  ILE154      0.2260
    172  O         20.7070   44.5610   18.8770 O.2   154  ILE154     -0.2867
    173  CB        23.1720   42.7870   20.2230 C.3   154  ILE154      0.0252
    174  CG1       23.4130   42.4780   21.7050 C.3   154  ILE154      0.0019
    175  CG2       23.6570   44.2220   19.9000 C.3   154  ILE154      0.0019
    176  CD1       24.8600   42.3980   22.0670 C.3   154  ILE154      0.0001
    177  N         31.5190   41.8170   22.8100 N.3   173  HIS173     -0.1241
    178  CA        32.9560   41.5270   22.8650 C.3   173  HIS173      0.1621
    179  C         33.5070   40.9710   21.5400 C.2   173  HIS173      0.2264
    180  O         34.7120   40.7290   21.4130 O.2   173  HIS173     -0.2867
    181  CB        33.1860   40.5090   23.9770 C.3   173  HIS173      0.0745
    182  CG        32.1480   39.4300   24.0000 C.ar  173  HIS173      0.0817
    183  ND1       32.1620   38.3640   23.1220 N.ar  173  HIS173     -0.2268
    184  CD2       31.0090   39.3030   24.7260 C.ar  173  HIS173      0.1154
    185  CE1       31.0790   37.6280   23.3070 C.ar  173  HIS173      0.1986
    186  NE2       30.3610   38.1760   24.2730 N.ar  173  HIS173     -0.2212
    187  N         29.3210   23.7550   24.6870 N.3   294  TYR294     -0.1241
    188  CA        29.0520   25.0490   25.2920 C.3   294  TYR294      0.1605
    189  C         28.0690   24.9710   26.4610 C.2   294  TYR294      0.2264
    190  O         28.3390   25.4910   27.5470 O.2   294  TYR294     -0.2867
    191  CB        28.5290   26.0250   24.2130 C.3   294  TYR294      0.0534
    192  CG        28.1370   27.3780   24.7510 C.ar  294  TYR294     -0.0201
    193  CD1       29.0720   28.1880   25.3800 C.ar  294  TYR294     -0.0009
    194  CD2       26.8320   27.8450   24.6190 C.ar  294  TYR294     -0.0009
    195  CE1       28.7270   29.4400   25.8630 C.ar  294  TYR294      0.0417
    196  CE2       26.4630   29.1000   25.1000 C.ar  294  TYR294      0.0417
    197  CZ        27.4190   29.8940   25.7180 C.ar  294  TYR294      0.1957
    198  OH        27.0810   31.1420   26.1820 O.3   294  TYR294     -0.2866
    199  N         28.5370   26.0130   30.4920 N.3   298  LEU298     -0.1245
    200  CA        27.6720   26.9460   31.2040 C.3   298  LEU298      0.1561
    201  C         27.0990   26.3170   32.4630 C.2   298  LEU298      0.2260
    202  O         27.0260   26.9720   33.5110 O.2   298  LEU298     -0.2867
    203  CB        26.5180   27.4350   30.3210 C.3   298  LEU298      0.0270
    204  CG        26.8130   28.4510   29.2140 C.3   298  LEU298      0.0019
    205  CD1       25.5030   28.8460   28.5360 C.3   298  LEU298      0.0001
    206  CD2       27.4920   29.6970   29.7950 C.3   298  LEU298      0.0001
@<TRIPOS>BOND
     1   171   172    2
     2   171   170    1
     3   169   170    1
     4   175   173    1
     5   170   173    1
     6   122   123    1
     7   173   174    1
     8   124   123    1
     9   124   125    2
    10   123   126    1
    11   128   127   ar
    12   180   179    2
    13   179   178    1
    14   167   166    2
    15   174   176    1
    16   165   166    1
    17   165   162    1
    18   166   168   am
    19   163   162    1
    20   163   164    2
    21   162   161    1
    22   126   127    1
    23   127   129   ar
    24   177   178    1
    25   178   181    1
    26   183   185   ar
    27   183   182   ar
    28   185   186   ar
    29   159   158    2
    30   161   158   am
    31   134   135    1
    32   134   131    1
    33   181   182    1
    34   132   131    1
    35   132   133    2
    36   135   136    1
    37   182   184   ar
    38   158   157    1
    39   191   192    1
    40   191   188    1
    41   186   184   ar
    42   130   131    1
    43   194   192   ar
    44   194   196   ar
    45   187   188    1
    46   192   193   ar
    47   196   197   ar
    48   154   153    2
    49   188   189    1
    50   136   138   am
    51   136   137    2
    52   193   195   ar
    53   157   156    1
    54   157   160    1
    55   197   195   ar
    56   197   198    1
    57   153   156   am
    58   153   152    1
    59    95    94    1
    60    95    96    1
    61   139   140    1
    62   115   114    2
    63   152   151    1
    64   152   155    1
    65   189   190    2
    66   119   121   ar
    67   119   117   ar
    68    94    93    1
    69   100    99    2
    70   111   110    2
    71   121   120   ar
    72   141   140    1
    73   141   142    2
    74   114   113    1
    75   140   143    1
    76   113   116    1
    77   113   112    1
    78   117   116    1
    79   117   118   ar
    80   143   144    1
    81    93    90    1
    82   110   112   am
    83   110   109    1
    84    99    98    1
    85    99   104   am
    86   101   102    1
    87   101    98    1
    88   101   103    1
    89   120   118   ar
    90    87    86    2
    91    90    91    1
    92    90    89    1
    93    97    98    1
    94    97    91   am
    95   105   106    1
    96   105   104    1
    97   205   204    1
    98    91    92    2
    99   106   107    2
   100   106   108   am
   101   108   109    1
   102   204   206    1
   103   204   203    1
   104    86    89   am
   105    86    85    1
   106   144   146   ar
   107   144   145   ar
   108   146   148   ar
   109    78    79    1
   110    78    77    1
   111    78    81    1
   112    80    79    2
   113   145   147   ar
   114    79    84   am
   115    82    81    1
   116   203   200    1
   117    84    85    1
   118   199   200    1
   119    85    88    1
   120    31    33   ar
   121    31    29   ar
   122    81    83    1
   123    33    32   ar
   124    29    28   ar
   125   200   201    1
   126   148   149   ar
   127   147   149   ar
   128   149   150    1
   129    32    30   ar
   130    28    30   ar
   131    28    27    1
   132   201   202    2
   133    22    21    1
   134    27    24    1
   135     4     3    2
   136     8     6    1
   137     7     5    1
   138     5     6    1
   139     5     2    1
   140    21    18    1
   141    24    23    1
   142    24    25    1
   143     3     2    1
   144     3     9   am
   145    10     9    1
   146    10    11    1
   147     2     1    1
   148    75    74    1
   149    12    11    2
   150    25    26    2
   151    57    55    1
   152    18    19    1
   153    18    17    1
   154    76    74    1
   155    20    19    2
   156    74    73    2
   157    17    15   am
   158    55    54    1
   159    56    54    1
   160    49    47   ar
   161    40    41    1
   162    40    39    1
   163    15    16    2
   164    15    14    1
   165    73    72    1
   166    54    51    1
   167    48    47   ar
   168    47    46    1
   169    13    14    1
   170    72    71    1
   171    37    36    2
   172    50    51    1
   173    50    44   am
   174    43    46    1
   175    43    44    1
   176    43    42    1
   177    51    52    1
   178    65    63   ar
   179    39    38    1
   180    36    42   am
   181    36    35    1
   182    44    45    2
   183    62    63    1
   184    62    59    1
   185    38    35    1
   186    58    52   am
   187    58    59    1
   188    52    53    2
   189    71    70    1
   190    63    64   ar
   191    35    34    1
   192    70    67    1
   193    59    60    1
   194    60    61    2
   195    67    68    1
   196    67    66    1
   197    68    69    2
