@<TRIPOS>MOLECULE
tmp/1obdA00.pdb
 170 163 0 0 0
SMALL
GASTEIGER

@<TRIPOS>ATOM
      1  N         15.6830   23.5820    0.8160 N.3    15  ALA15      -0.1231
      2  CA        14.8480   23.6140   -0.3540 C.3    15  ALA15       0.1694
      3  C         14.8180   24.9870   -0.9540 C.2    15  ALA15       0.2592
      4  O         15.0160   25.9200   -0.2350 O.2    15  ALA15      -0.2718
      5  CB        13.4190   23.2470    0.0350 C.3    15  ALA15       0.0304
      6  N         14.5710   25.1290   -2.2570 N.am   16  ARG16      -0.1966
      7  CA        14.0170   26.3820   -2.8330 C.3    16  ARG16       0.1729
      8  C         12.6880   26.1300   -3.4930 C.2    16  ARG16       0.2617
      9  O         12.6220   25.2800   -4.4170 O.2    16  ARG16      -0.2715
     10  CB        14.9650   27.1040   -3.8040 C.3    16  ARG16       0.0348
     11  CG        16.1450   27.8110   -3.1280 C.3    16  ARG16       0.0492
     12  CD        16.7990   28.9250   -3.9790 C.3    16  ARG16       0.2205
     13  NE        18.1370   29.2890   -3.4950 N.pl3  16  ARG16      -0.0865
     14  CZ        19.2950   28.8830   -4.0200 C.cat  16  ARG16       0.5346
     15  NH1       20.4350   29.2780   -3.4930 N.pl3  16  ARG16       0.1354
     16  NH2       19.3210   28.0880   -5.0790 N.pl3  16  ARG16       0.1354
     17  N         11.6220   26.7840   -3.0670 N.am   17  GLY17      -0.1940
     18  CA        10.3040   26.7000   -3.6630 C.3    17  GLY17       0.2014
     19  C         10.1680   27.7300   -4.7800 C.2    17  GLY17       0.2639
     20  O         11.1830   28.3000   -5.2070 O.2    17  GLY17      -0.2714
     21  N          8.9470   28.0220   -5.1800 N.am   18  LYS18      -0.1963
     22  CA         8.6990   29.0340   -6.2050 C.3    18  LYS18       0.1728
     23  C          9.2020   30.3810   -5.7060 C.2    18  LYS18       0.2616
     24  O          9.7180   31.1980   -6.4620 O.2    18  LYS18      -0.2715
     25  CB         7.1930   29.1510   -6.5210 C.3    18  LYS18       0.0311
     26  CG         6.5150   27.9310   -7.1450 C.3    18  LYS18       0.0038
     27  CD         7.0450   27.6350   -8.5430 C.3    18  LYS18       0.0206
     28  CE         8.1330   26.5470   -8.5260 C.3    18  LYS18       0.1093
     29  NZ         7.6240   25.1410   -8.6890 N.3    18  LYS18      -0.1314
     30  N          9.0530   30.6060   -4.4270 N.am   19  VAL19      -0.1963
     31  CA         9.2410   31.9260   -3.8770 C.3    19  VAL19       0.1727
     32  C         10.1350   31.9420   -2.6590 C.2    19  VAL19       0.2616
     33  O         10.8000   32.9210   -2.3860 O.2    19  VAL19      -0.2715
     34  CB         7.8800   32.5610   -3.5060 C.3    19  VAL19       0.0290
     35  CG1        8.0230   33.8250   -2.6890 C.3    19  VAL19       0.0023
     36  CG2        7.0170   32.7560   -4.7220 C.3    19  VAL19       0.0023
     37  N         10.2190   30.8700   -1.9150 N.am   20  ARG20      -0.1977
     38  CA        10.9810   30.8510   -0.6710 C.3    20  ARG20       0.1597
     39  C         12.2240   29.9620   -0.7520 C.2    20  ARG20       0.2287
     40  O         12.2170   28.9300   -1.4130 O.2    20  ARG20      -0.2864
     41  CB        10.0580   30.3910    0.4300 C.3    20  ARG20       0.0334
     42  CG         8.8880   31.3970    0.6480 C.3    20  ARG20       0.0492
     43  CD         8.0680   31.1910    1.9220 C.3    20  ARG20       0.2205
     44  NE         7.5160   29.8520    2.0340 N.pl3  20  ARG20      -0.0865
     45  CZ         6.7850   29.4520    3.0750 C.cat  20  ARG20       0.5346
     46  NH1        6.5160   30.2600    4.0920 N.pl3  20  ARG20       0.1354
     47  NH2        6.3400   28.2270    3.1000 N.pl3  20  ARG20       0.1354
     48  N         14.7180   27.9490    1.8330 N.3    22  ILE22      -0.1245
     49  CA        14.6780   27.3720    3.1680 C.3    22  ILE22       0.1561
     50  C         16.0620   26.8500    3.5400 C.2    22  ILE22       0.2260
     51  O         16.6200   26.0190    2.8230 O.2    22  ILE22      -0.2867
     52  CB        13.7000   26.1990    3.2400 C.3    22  ILE22       0.0252
     53  CG1       12.3300   26.5830    2.7210 C.3    22  ILE22       0.0019
     54  CG2       13.6350   25.6740    4.6470 C.3    22  ILE22       0.0019
     55  CD1       11.2930   25.5760    3.0510 C.3    22  ILE22       0.0001
     56  N         14.7410   25.9370   11.2960 N.3    30  LEU30      -0.1245
     57  CA        14.8510   26.3300    9.8950 C.3    30  LEU30       0.1561
     58  C         14.7320   27.8330    9.7710 C.2    30  LEU30       0.2260
     59  O         14.1950   28.5100   10.6530 O.2    30  LEU30      -0.2867
     60  CB        13.7580   25.6800    9.0630 C.3    30  LEU30       0.0270
     61  CG        13.7360   24.1600    9.0630 C.3    30  LEU30       0.0019
     62  CD1       12.4600   23.6410    8.3110 C.3    30  LEU30       0.0001
     63  CD2       14.9910   23.5890    8.4180 C.3    30  LEU30       0.0001
     64  N         13.2350   30.4590    6.9740 N.3    32  PHE32      -0.1241
     65  CA        12.3850   30.6170    5.7880 C.3    32  PHE32       0.1605
     66  C         12.5920   32.0000    5.2190 C.2    32  PHE32       0.2264
     67  O         12.1980   32.9670    5.8660 O.2    32  PHE32      -0.2867
     68  CB        10.9020   30.4800    6.1390 C.3    32  PHE32       0.0534
     69  CG        10.3890   29.0680    6.3240 C.ar   32  PHE32      -0.0203
     70  CD1        9.0510   28.8220    6.2010 C.ar   32  PHE32      -0.0042
     71  CD2       11.1830   28.0130    6.6590 C.ar   32  PHE32      -0.0042
     72  CE1        8.5260   27.5500    6.3700 C.ar   32  PHE32      -0.0003
     73  CE2       10.6690   26.7360    6.8120 C.ar   32  PHE32      -0.0003
     74  CZ         9.3480   26.5050    6.6440 C.ar   32  PHE32      -0.0000
     75  N          4.6680   27.6650   14.3450 N.3    74  HIS74      -0.1241
     76  CA         6.0700   27.2320   14.2830 C.3    74  HIS74       0.1621
     77  C          7.0880   28.3140   14.5630 C.2    74  HIS74       0.2264
     78  O          8.2840   28.0210   14.5480 O.2    74  HIS74      -0.2867
     79  CB         6.3980   26.5400   12.9270 C.3    74  HIS74       0.0745
     80  CG         6.2980   27.4290   11.7040 C.ar   74  HIS74       0.0817
     81  ND1        6.6620   26.9910   10.4380 N.ar   74  HIS74      -0.2268
     82  CD2        5.8800   28.7140   11.5460 C.ar   74  HIS74       0.1154
     83  CE1        6.4840   27.9730    9.5730 C.ar   74  HIS74       0.1986
     84  NE2        6.0110   29.0280   10.2050 N.ar   74  HIS74      -0.2212
     85  N         12.0280   29.3500   12.3570 N.3   108  VAL108     -0.1231
     86  CA        10.9270   28.4510   12.6750 C.3   108  VAL108      0.1692
     87  C         11.4220   27.1330   13.2540 C.2   108  VAL108      0.2592
     88  O         12.4940   26.6420   12.9000 O.2   108  VAL108     -0.2718
     89  CB         9.9850   28.2390   11.4790 C.3   108  VAL108      0.0266
     90  CG1        9.4960   29.5300   10.8950 C.3   108  VAL108      0.0020
     91  CG2       10.6050   27.3830   10.4090 C.3   108  VAL108      0.0020
     92  N         10.6340   26.5870   14.1680 N.am  109  HIS109     -0.1962
     93  CA        10.8880   25.2630   14.6870 C.3   109  HIS109      0.1787
     94  C         10.5350   24.2220   13.6440 C.2   109  HIS109      0.2620
     95  O          9.4590   24.2880   13.0080 O.2   109  HIS109     -0.2715
     96  CB         9.9830   25.0170   15.9180 C.3   109  HIS109      0.0785
     97  CG        10.2970   25.8710   17.1070 C.ar  109  HIS109      0.0821
     98  ND1       11.4540   25.7330   17.8350 N.ar  109  HIS109     -0.2267
     99  CD2        9.5930   26.8700   17.7070 C.ar  109  HIS109      0.1154
    100  CE1       11.4620   26.6160   18.8220 C.ar  109  HIS109      0.1986
    101  NE2       10.3480   27.3210   18.7670 N.ar  109  HIS109     -0.2212
    102  N         11.4260   23.2450   13.4830 N.am  110  LYS110     -0.1963
    103  CA        11.1670   22.0520   12.7000 C.3   110  LYS110      0.1728
    104  C         10.1360   21.2590   13.3660 C.2   110  LYS110      0.2616
    105  O         10.2940   20.8930   14.5410 O.2   110  LYS110     -0.2715
    106  CB        12.3650   21.1380   12.7210 C.3   110  LYS110      0.0311
    107  CG        13.2920   21.4700   11.7250 C.3   110  LYS110      0.0038
    108  CD        14.3430   20.3520   11.5990 C.3   110  LYS110      0.0206
    109  CE        15.5500   20.8690   10.8900 C.3   110  LYS110      0.1093
    110  NZ        16.6520   19.8780   11.0050 N.3   110  LYS110     -0.1314
    111  N          9.0790   20.9640   12.6510 N.am  111  HIS111     -0.1973
    112  CA         8.0690   20.1200   13.1950 C.3   111  HIS111      0.1656
    113  C          7.8780   18.9130   12.3100 C.2   111  HIS111      0.2291
    114  O          8.2330   18.9140   11.1220 O.2   111  HIS111     -0.2864
    115  CB         6.7510   20.9100   13.3330 C.3   111  HIS111      0.0771
    116  CG         6.6960   21.7370   14.5870 C.ar  111  HIS111      0.0820
    117  ND1        6.5480   21.1950   15.8400 N.ar  111  HIS111     -0.2267
    118  CD2        6.7870   23.0700   14.7730 C.ar  111  HIS111      0.1154
    119  CE1        6.5490   22.1520   16.7440 C.ar  111  HIS111      0.1986
    120  NE2        6.6750   23.3080   16.1170 N.ar  111  HIS111     -0.2212
    121  N          5.5540   17.2830   10.0200 N.3   113  LEU113     -0.1245
    122  CA         4.4350   17.7940    9.2870 C.3   113  LEU113      0.1561
    123  C          3.4490   16.6620    9.1100 C.2   113  LEU113      0.2260
    124  O          3.7640   15.4760    9.0920 O.2   113  LEU113     -0.2867
    125  CB         4.7920   18.4350    7.9170 C.3   113  LEU113      0.0270
    126  CG         4.9620   19.9700    7.8780 C.3   113  LEU113      0.0019
    127  CD1        3.5950   20.6020    7.4400 C.3   113  LEU113      0.0001
    128  CD2        5.6260   20.5710    9.1590 C.3   113  LEU113      0.0001
    129  N          0.2920   17.2550   -2.5950 N.3   163  LYS163     -0.1245
    130  CA         1.3140   17.9670   -3.3600 C.3   163  LYS163      0.1561
    131  C          1.8720   17.1060   -4.4730 C.2   163  LYS163      0.2260
    132  O          1.9560   15.8880   -4.3330 O.2   163  LYS163     -0.2867
    133  CB         2.4930   18.3790   -2.4640 C.3   163  LYS163      0.0271
    134  CG         2.2850   18.3100   -0.9730 C.3   163  LYS163      0.0035
    135  CD         2.2530   16.9010   -0.4040 C.3   163  LYS163      0.0206
    136  CE         1.3130   16.8640    0.7910 C.3   163  LYS163      0.1093
    137  NZ         1.7330   17.9760    1.7420 N.3   163  LYS163     -0.1314
    138  N         -4.7520   27.6750    1.4810 N.3   211  LYS211     -0.1245
    139  CA        -4.0400   26.4400    1.7070 C.3   211  LYS211      0.1561
    140  C         -3.1980   26.5720    2.9500 C.2   211  LYS211      0.2260
    141  O         -2.2540   27.3650    2.9950 O.2   211  LYS211     -0.2867
    142  CB        -3.1620   26.1080    0.5120 C.3   211  LYS211      0.0271
    143  CG        -2.4820   24.7890    0.6160 C.3   211  LYS211      0.0035
    144  CD        -1.7460   24.4150   -0.7060 C.3   211  LYS211      0.0206
    145  CE        -0.6930   25.4240   -1.1120 C.3   211  LYS211      0.1093
    146  NZ         0.4600   25.3690   -0.1570 N.3   211  LYS211     -0.1314
    147  N         -0.7980   24.3990    5.8510 N.3   213  GLU213     -0.1245
    148  CA        -0.1340   23.1840    6.2350 C.3   213  GLU213      0.1567
    149  C          0.0260   23.1920    7.7480 C.2   213  GLU213      0.2260
    150  O          0.2060   24.2450    8.3860 O.2   213  GLU213     -0.2867
    151  CB         1.2180   23.0200    5.5500 C.3   213  GLU213      0.0388
    152  CG         1.1350   22.7530    4.0510 C.3   213  GLU213      0.1160
    153  CD         2.5000   22.5420    3.4210 C.2   213  GLU213      0.3649
    154  OE1        2.5730   22.4820    2.1750 O.co2 213  GLU213     -0.2457
    155  OE2        3.5070   22.4840    4.1710 O.co2 213  GLU213     -0.2457
    156  N          1.9350   25.8230   10.4350 N.3   226  VAL226     -0.1231
    157  CA         3.2640   25.9460    9.8630 C.3   226  VAL226      0.1692
    158  C          3.1410   26.5780    8.4930 C.2   226  VAL226      0.2592
    159  O          2.1210   27.0970    8.1060 O.2   226  VAL226     -0.2718
    160  CB         4.0180   24.6070    9.8270 C.3   226  VAL226      0.0266
    161  CG1        4.0910   23.9440   11.2350 C.3   226  VAL226      0.0020
    162  CG2        3.3920   23.6110    8.8250 C.3   226  VAL226      0.0020
    163  N          4.2210   26.5290    7.7440 N.am  227  ASP227     -0.1974
    164  CA         4.2320   27.0170    6.3430 C.3   227  ASP227      0.1709
    165  C          3.7400   28.4840    6.1550 C.2   227  ASP227      0.2293
    166  O          3.8670   29.3470    7.0480 O.2   227  ASP227     -0.2864
    167  CB         3.4100   26.0210    5.5150 C.3   227  ASP227      0.1436
    168  CG         3.7720   25.9750    4.0570 C.2   227  ASP227      0.3671
    169  OD1        4.9720   25.8140    3.7610 O.co2 227  ASP227     -0.2456
    170  OD2        2.8770   26.0590    3.1940 O.co2 227  ASP227     -0.2456
@<TRIPOS>BOND
     1    29    28    1
     2    27    28    1
     3    27    26    1
     4    26    25    1
     5    25    22    1
     6    24    23    2
     7    22    23    1
     8    22    21    1
     9    23    30   am
    10    20    19    2
    11    21    19   am
    12    16    14    1
    13    19    18    1
    14    36    34    1
    15   131   132    2
    16   131   130    1
    17    30    31    1
    18     9     8    2
    19    14    13    2
    20    14    15    1
    21    12    13    1
    22    12    11    1
    23    31    34    1
    24    31    32    1
    25    10    11    1
    26    10     7    1
    27    18    17    1
    28    34    35    1
    29     8    17   am
    30     8     7    1
    31   130   129    1
    32   130   133    1
    33     7     6    1
    34    32    33    2
    35    32    37   am
    36   133   134    1
    37     6     3   am
    38    37    38    1
    39    40    39    2
    40   145   144    1
    41   145   146    1
    42   134   135    1
    43     3     2    1
    44     3     4    2
    45    39    38    1
    46   144   143    1
    47    38    41    1
    48   135   136    1
    49     2     5    1
    50     2     1    1
    51    41    42    1
    52   142   143    1
    53   142   139    1
    54    42    43    1
    55   136   137    1
    56   138   139    1
    57   139   140    1
    58    48    49    1
    59    43    44    1
    60    44    45    2
    61   154   153   ar
    62    53    55    1
    63    53    52    1
    64    51    50    2
    65   140   141    2
    66    45    47    1
    67    45    46    1
    68    49    52    1
    69    49    50    1
    70   170   168   ar
    71    52    54    1
    72   153   152    1
    73   153   155   ar
    74   169   168   ar
    75   152   151    1
    76   168   167    1
    77    66    65    1
    78    66    67    2
    79   167   164    1
    80   151   148    1
    81    65    68    1
    82    65    64    1
    83   147   148    1
    84    68    69    1
    85   165   164    1
    86   165   166    2
    87    70    69   ar
    88    70    72   ar
    89   148   149    1
    90    69    71   ar
    91   164   163    1
    92    72    74   ar
    93    74    73   ar
    94    71    73   ar
    95   127   126    1
    96   163   158   am
    97   149   150    2
    98   126   125    1
    99   126   128    1
   100   125   122    1
   101   159   158    2
   102    62    61    1
   103    63    61    1
   104   158   157    1
   105   162   160    1
   106    60    61    1
   107    60    57    1
   108   124   123    2
   109   123   122    1
   110   122   121    1
   111    83    84   ar
   112    83    81   ar
   113    58    57    1
   114    58    59    2
   115   160   157    1
   116   160   161    1
   117   157   156    1
   118    57    56    1
   119    84    82   ar
   120    91    89    1
   121    81    80   ar
   122   109   110    1
   123   109   108    1
   124    90    89    1
   125   114   113    2
   126    89    86    1
   127    82    80   ar
   128   108   107    1
   129    80    79    1
   130   107   106    1
   131   113   112    1
   132    85    86    1
   133   111   112    1
   134   111   104   am
   135    86    87    1
   136   103   106    1
   137   103   104    1
   138   103   102    1
   139    88    87    2
   140    79    76    1
   141    95    94    2
   142   112   115    1
   143    87    92   am
   144   115   116    1
   145   104   105    2
   146   102    94   am
   147    94    93    1
   148    92    93    1
   149    76    75    1
   150    76    77    1
   151    78    77    2
   152   116   118   ar
   153   116   117   ar
   154    93    96    1
   155   118   120   ar
   156   117   119   ar
   157    96    97    1
   158   120   119   ar
   159    97    99   ar
   160    97    98   ar
   161    99   101   ar
   162    98   100   ar
   163   101   100   ar
