@<TRIPOS>MOLECULE
tmp/1obgA01.pdb
 97 90 0 0 0
SMALL
GASTEIGER

@<TRIPOS>ATOM
      1  N         13.5740   29.2510   23.5300 N.3    58  LYS58      -0.1245
      2  CA        13.7740   30.5470   24.1850 C.3    58  LYS58       0.1561
      3  C         13.2520   31.6760   23.3200 C.2    58  LYS58       0.2260
      4  O         12.6560   32.6320   23.8120 O.2    58  LYS58      -0.2867
      5  CB        15.2390   30.7340   24.5140 C.3    58  LYS58       0.0271
      6  CG        15.6730   29.8970   25.7330 C.3    58  LYS58       0.0035
      7  CD        17.1330   30.1540   26.0630 C.3    58  LYS58       0.0206
      8  CE        17.4830   29.7480   27.4900 C.3    58  LYS58       0.1093
      9  NZ        16.6240   30.4340   28.5260 N.3    58  LYS58      -0.1314
     10  N          9.4760   31.5830   23.6220 N.3    61  GLU61      -0.1245
     11  CA         9.0610   32.1380   24.9040 C.3    61  GLU61       0.1567
     12  C          9.1170   33.6500   24.8750 C.2    61  GLU61       0.2260
     13  O          8.2130   34.3270   25.3970 O.2    61  GLU61      -0.2867
     14  CB         9.9550   31.6310   26.0460 C.3    61  GLU61       0.0388
     15  CG         9.6820   30.1790   26.3640 C.3    61  GLU61       0.1160
     16  CD        10.7480   29.5450   27.2350 C.2    61  GLU61       0.3649
     17  OE1       10.5000   28.4290   27.6890 O.co2  61  GLU61      -0.2457
     18  OE2       11.8200   30.1320   27.4650 O.co2  61  GLU61      -0.2457
     19  N          5.7960   36.1390   25.4510 N.3    65  LYS65      -0.1245
     20  CA         5.8600   37.2440   26.3930 C.3    65  LYS65       0.1561
     21  C          5.6360   38.6040   25.6970 C.2    65  LYS65       0.2260
     22  O          4.8340   39.4040   26.1650 O.2    65  LYS65      -0.2867
     23  CB         7.1770   37.2140   27.2000 C.3    65  LYS65       0.0271
     24  CG         7.3770   36.1220   28.1770 C.3    65  LYS65       0.0035
     25  CD         6.3110   35.9520   29.2260 C.3    65  LYS65       0.0206
     26  CE         6.5200   34.6190   29.9920 C.3    65  LYS65       0.1093
     27  NZ         7.0820   33.5180   29.0630 N.3    65  LYS65      -0.1314
     28  N          0.4900   28.4030   26.8260 N.3    75  LEU75      -0.1231
     29  CA         1.4190   28.0230   27.8890 C.3    75  LEU75       0.1693
     30  C          0.6740   27.8130   29.2010 C.2    75  LEU75       0.2592
     31  O         -0.2210   28.6000   29.5490 O.2    75  LEU75      -0.2718
     32  CB         2.5100   29.0850   28.1100 C.3    75  LEU75       0.0284
     33  CG         3.4440   29.3520   26.9140 C.3    75  LEU75       0.0019
     34  CD1        4.4320   30.4600   27.2770 C.3    75  LEU75       0.0001
     35  CD2        4.1680   28.0780   26.4630 C.3    75  LEU75       0.0001
     36  N          1.0460   26.7630   29.9230 N.am   76  VAL76      -0.1966
     37  CA         0.6150   26.6290   31.3110 C.3    76  VAL76       0.1727
     38  C          1.2860   27.7480   32.1440 C.2    76  VAL76       0.2616
     39  O          2.4820   28.0160   32.0080 O.2    76  VAL76      -0.2715
     40  CB         0.9450   25.2130   31.8910 C.3    76  VAL76       0.0290
     41  CG1        0.6880   25.1540   33.4060 C.3    76  VAL76       0.0023
     42  CG2        0.1230   24.1320   31.1620 C.3    76  VAL76       0.0023
     43  N          0.4940   28.3900   32.9930 N.am   77  ASP77      -0.1957
     44  CA         0.9800   29.3870   33.9300 C.3    77  ASP77       0.1840
     45  C          1.7210   28.7080   35.0840 C.2    77  ASP77       0.2621
     46  O          1.1030   28.1610   35.9870 O.2    77  ASP77      -0.2715
     47  CB        -0.2210   30.2050   34.4270 C.3    77  ASP77       0.1450
     48  CG         0.1650   31.5800   34.9640 C.2    77  ASP77       0.3671
     49  OD1       -0.7550   32.4170   35.1680 O.co2  77  ASP77      -0.2456
     50  OD2        1.3350   31.9200   35.2060 O.co2  77  ASP77      -0.2456
     51  N          3.0450   28.7240   35.0370 N.am   78  ILE78      -0.1977
     52  CA         3.8580   28.0530   36.0490 C.3    78  ILE78       0.1596
     53  C          3.9160   28.9770   37.2770 C.2    78  ILE78       0.2287
     54  O          4.2060   30.1630   37.1330 O.2    78  ILE78      -0.2864
     55  CB         5.2840   27.7700   35.4870 C.3    78  ILE78       0.0276
     56  CG1        5.2030   26.9130   34.2070 C.3    78  ILE78       0.0022
     57  CG2        6.2190   27.1750   36.5670 C.3    78  ILE78       0.0022
     58  CD1        5.1870   25.4160   34.4080 C.3    78  ILE78       0.0001
     59  N          8.4060   27.8610   41.0120 N.3    82  LYS82      -0.1245
     60  CA         8.3000   26.4820   40.5390 C.3    82  LYS82       0.1561
     61  C          8.9020   26.3770   39.1400 C.2    82  LYS82       0.2260
     62  O          9.1810   27.3920   38.5100 O.2    82  LYS82      -0.2867
     63  CB         6.8420   26.0170   40.5450 C.3    82  LYS82       0.0271
     64  CG         6.2560   25.9030   41.9370 C.3    82  LYS82       0.0035
     65  CD         4.9340   25.1750   41.9320 C.3    82  LYS82       0.0206
     66  CE         4.7130   24.3980   43.2310 C.3    82  LYS82       0.1093
     67  NZ         5.6420   24.8070   44.3510 N.3    82  LYS82      -0.1314
     68  N          8.8640   23.6520   35.3280 N.3    84  ILE84      -0.1245
     69  CA         8.0480   22.6540   34.6500 C.3    84  ILE84       0.1561
     70  C          8.2570   21.3310   35.3440 C.2    84  ILE84       0.2260
     71  O          7.3610   20.4940   35.3390 O.2    84  ILE84      -0.2867
     72  CB         8.3610   22.5190   33.1320 C.3    84  ILE84       0.0252
     73  CG1        9.8490   22.2210   32.9080 C.3    84  ILE84       0.0019
     74  CG2        7.9010   23.7510   32.3780 C.3    84  ILE84       0.0019
     75  CD1       10.1560   21.6590   31.5180 C.3    84  ILE84       0.0001
     76  N         11.7720   22.6370   26.5920 N.3   105  SER105     -0.1202
     77  CA        10.4270   22.0970   26.7640 C.3   105  SER105      0.2020
     78  C          9.3730   23.1270   27.0900 C.2   105  SER105      0.2619
     79  O          9.6070   24.0130   27.9210 O.2   105  SER105     -0.2717
     80  CB        10.4650   21.0850   27.8930 C.3   105  SER105      0.2103
     81  OG        11.3860   20.0890   27.5100 O.3   105  SER105     -0.2182
     82  N          8.2120   23.0100   26.4620 N.am  106  LEU106     -0.1965
     83  CA         7.0730   23.8580   26.8320 C.3   106  LEU106      0.1728
     84  C          5.8970   23.0390   27.2890 C.2   106  LEU106      0.2616
     85  O          5.4820   22.0970   26.6000 O.2   106  LEU106     -0.2715
     86  CB         6.6240   24.7450   25.6690 C.3   106  LEU106      0.0311
     87  CG         7.6970   25.7050   25.1210 C.3   106  LEU106      0.0022
     88  CD1        7.1980   26.3390   23.8370 C.3   106  LEU106      0.0001
     89  CD2        8.0060   26.7560   26.1470 C.3   106  LEU106      0.0001
     90  N          5.3680   23.4240   28.4440 N.am  107  LEU107     -0.1977
     91  CA         4.1860   22.8200   29.0270 C.3   107  LEU107      0.1596
     92  C          2.9780   23.6120   28.5780 C.2   107  LEU107      0.2287
     93  O          2.8810   24.8260   28.8330 O.2   107  LEU107     -0.2864
     94  CB         4.3210   22.8010   30.5680 C.3   107  LEU107      0.0297
     95  CG         3.2800   21.9410   31.2770 C.3   107  LEU107      0.0022
     96  CD1        3.5180   20.4400   31.0180 C.3   107  LEU107      0.0001
     97  CD2        3.2290   22.2540   32.7860 C.3   107  LEU107      0.0001
@<TRIPOS>BOND
     1     3     4    2
     2     3     2    1
     3     1     2    1
     4    10    11    1
     5    88    87    1
     6     2     5    1
     7     5     6    1
     8    12    11    1
     9    12    13    2
    10    11    14    1
    11    87    86    1
    12    87    89    1
    13    19    20    1
    14    86    83    1
    15    21    22    2
    16    21    20    1
    17     6     7    1
    18    14    15    1
    19     7     8    1
    20    15    16    1
    21    20    23    1
    22    82    83    1
    23    82    78   am
    24    35    33    1
    25    76    77    1
    26    85    84    2
    27    77    78    1
    28    77    80    1
    29    28    29    1
    30    83    84    1
    31    33    34    1
    32    33    32    1
    33    78    79    2
    34    23    24    1
    35    16    18   ar
    36    16    17   ar
    37    84    90   am
    38     8     9    1
    39    81    80    1
    40    29    32    1
    41    29    30    1
    42    24    25    1
    43    90    91    1
    44    92    93    2
    45    92    91    1
    46    91    94    1
    47    27    26    1
    48    30    31    2
    49    30    36   am
    50    25    26    1
    51    36    37    1
    52    94    95    1
    53    96    95    1
    54    42    40    1
    55    95    97    1
    56    37    40    1
    57    37    38    1
    58    75    73    1
    59    40    41    1
    60    39    38    2
    61    38    43   am
    62    74    72    1
    63    73    72    1
    64    43    44    1
    65    72    69    1
    66    44    47    1
    67    44    45    1
    68    56    58    1
    69    56    55    1
    70    47    48    1
    71    69    68    1
    72    69    70    1
    73    48    49   ar
    74    48    50   ar
    75    51    45   am
    76    51    52    1
    77    45    46    2
    78    71    70    2
    79    55    52    1
    80    55    57    1
    81    52    53    1
    82    54    53    2
    83    62    61    2
    84    61    60    1
    85    60    63    1
    86    60    59    1
    87    63    64    1
    88    65    64    1
    89    65    66    1
    90    66    67    1
