@<TRIPOS>MOLECULE
tmp/1obgA00.pdb
 138 131 0 0 0
SMALL
GASTEIGER

@<TRIPOS>ATOM
      1  N          7.4820   14.9800   15.5260 N.3    17  GLY17      -0.1210
      2  CA         7.3910   15.7180   14.2770 C.3    17  GLY17       0.1956
      3  C          8.7880   15.8280   13.6890 C.2    17  GLY17       0.2611
      4  O          9.7070   15.0940   14.0770 O.2    17  GLY17      -0.2717
      5  N          8.9600   16.7520   12.7560 N.am   18  LYS18      -0.1979
      6  CA        10.2770   17.0060   12.1800 C.3    18  LYS18       0.1596
      7  C         11.3050   17.3820   13.2500 C.2    18  LYS18       0.2287
      8  O         12.4320   16.9140   13.2400 O.2    18  LYS18      -0.2864
      9  CB        10.1890   18.1350   11.1540 C.3    18  LYS18       0.0298
     10  CG         9.6350   17.7040    9.8110 C.3    18  LYS18       0.0038
     11  CD         9.3830   18.9260    8.9240 C.3    18  LYS18       0.0206
     12  CE         8.4090   18.5910    7.7980 C.3    18  LYS18       0.1093
     13  NZ         8.9890   17.5460    6.8920 N.3    18  LYS18      -0.1314
     14  N          9.9750   18.5420   16.8490 N.3    20  ARG20      -0.1245
     15  CA         9.4590   18.4490   18.2190 C.3    20  ARG20       0.1563
     16  C          9.0490   17.0360   18.5800 C.2    20  ARG20       0.2260
     17  O          8.5230   16.3120   17.7390 O.2    20  ARG20      -0.2867
     18  CB         8.2460   19.3680   18.4150 C.3    20  ARG20       0.0307
     19  CG         8.5950   20.8530   18.2980 C.3    20  ARG20       0.0489
     20  CD         7.3980   21.8070   18.4720 C.3    20  ARG20       0.2205
     21  NE         6.8310   22.2300   17.1910 N.pl3  20  ARG20      -0.0865
     22  CZ         5.5370   22.5020   16.9750 C.cat  20  ARG20       0.5346
     23  NH1        4.6430   22.4030   17.9450 N.pl3  20  ARG20       0.1354
     24  NH2        5.1350   22.8770   15.7720 N.pl3  20  ARG20       0.1354
     25  N          6.4730   15.2850   21.2450 N.3    22  ILE22      -0.1245
     26  CA         5.3070   15.7550   21.9740 C.3    22  ILE22       0.1561
     27  C          4.8950   14.6710   22.9490 C.2    22  ILE22       0.2260
     28  O          4.7410   13.5260   22.5410 O.2    22  ILE22      -0.2867
     29  CB         4.1500   16.0800   20.9930 C.3    22  ILE22       0.0252
     30  CG1        4.5680   17.2020   20.0040 C.3    22  ILE22       0.0019
     31  CG2        2.9130   16.5330   21.7630 C.3    22  ILE22       0.0019
     32  CD1        3.5590   17.3890   18.8570 C.3    22  ILE22       0.0001
     33  N         -0.0260   19.0520   27.3540 N.3    30  LEU30      -0.1245
     34  CA         1.0140   18.4270   26.5580 C.3    30  LEU30       0.1561
     35  C          2.3670   19.0290   26.9170 C.2    30  LEU30       0.2260
     36  O          2.4450   20.1630   27.4330 O.2    30  LEU30      -0.2867
     37  CB         0.7650   18.6570   25.0660 C.3    30  LEU30       0.0270
     38  CG        -0.5870   18.1390   24.5860 C.3    30  LEU30       0.0019
     39  CD1       -0.9510   18.8390   23.2850 C.3    30  LEU30       0.0001
     40  CD2       -0.5120   16.6350   24.3800 C.3    30  LEU30       0.0001
     41  N          5.8170   19.9460   24.9080 N.3    32  PHE32      -0.1241
     42  CA         6.4660   20.0640   23.5930 C.3    32  PHE32       0.1605
     43  C          7.9590   20.1880   23.7960 C.2    32  PHE32       0.2264
     44  O          8.4080   21.1280   24.4680 O.2    32  PHE32      -0.2867
     45  CB         6.0320   21.3580   22.9060 C.3    32  PHE32       0.0534
     46  CG         4.6690   21.3100   22.2840 C.ar   32  PHE32      -0.0203
     47  CD1        4.2880   22.2920   21.3720 C.ar   32  PHE32      -0.0042
     48  CD2        3.7630   20.3170   22.5950 C.ar   32  PHE32      -0.0042
     49  CE1        3.0230   22.2630   20.7900 C.ar   32  PHE32      -0.0003
     50  CE2        2.4890   20.2850   22.0030 C.ar   32  PHE32      -0.0003
     51  CZ         2.1220   21.2300   21.1150 C.ar   32  PHE32      -0.0000
     52  N         -1.1620   29.2710   24.7000 N.3    74  HIS74      -0.1241
     53  CA        -1.3960   27.9670   25.3040 C.3    74  HIS74       0.1621
     54  C         -0.4610   27.5560   26.4510 C.2    74  HIS74       0.2264
     55  O         -0.5990   26.4570   26.9890 O.2    74  HIS74      -0.2867
     56  CB        -1.4780   26.8580   24.2310 C.3    74  HIS74       0.0745
     57  CG        -0.1950   26.5700   23.4900 C.ar   74  HIS74       0.0817
     58  ND1        0.9180   27.3830   23.5250 N.ar   74  HIS74      -0.2268
     59  CD2        0.1230   25.5500   22.6600 C.ar   74  HIS74       0.1154
     60  CE1        1.8750   26.8630   22.7730 C.ar   74  HIS74       0.1986
     61  NE2        1.4120   25.7540   22.2320 N.ar   74  HIS74      -0.2212
     62  N          2.0470   22.9620   27.8910 N.3   108  VAL108     -0.1231
     63  CA         0.9730   23.7310   27.2680 C.3   108  VAL108      0.1692
     64  C         -0.3850   23.1110   27.4740 C.2   108  VAL108      0.2592
     65  O         -0.4780   21.9000   27.6510 O.2   108  VAL108     -0.2718
     66  CB         1.2040   23.9250   25.7440 C.3   108  VAL108      0.0266
     67  CG1        2.5750   24.5920   25.4870 C.3   108  VAL108      0.0020
     68  CG2        1.0800   22.5930   24.9920 C.3   108  VAL108      0.0020
     69  N         -1.4230   23.9440   27.4370 N.am  109  HIS109     -0.1962
     70  CA        -2.7990   23.4720   27.4820 C.3   109  HIS109      0.1787
     71  C         -3.2090   23.0200   26.1030 C.2   109  HIS109      0.2620
     72  O         -3.0010   23.7540   25.1210 O.2   109  HIS109     -0.2715
     73  CB        -3.7490   24.5870   27.9010 C.3   109  HIS109      0.0785
     74  CG        -3.6230   24.9880   29.3360 C.ar  109  HIS109      0.0821
     75  ND1       -3.1900   26.2420   29.7230 N.ar  109  HIS109     -0.2267
     76  CD2       -3.8780   24.3070   30.4790 C.ar  109  HIS109      0.1154
     77  CE1       -3.1860   26.3130   31.0440 C.ar  109  HIS109      0.1986
     78  NE2       -3.5960   25.1500   31.5250 N.ar  109  HIS109     -0.2212
     79  N         -3.7980   21.8230   26.0380 N.am  110  LYS110     -0.1963
     80  CA        -4.3800   21.2900   24.8190 C.3   110  LYS110      0.1728
     81  C         -5.6360   22.0870   24.4950 C.2   110  LYS110      0.2616
     82  O         -6.4530   22.3410   25.3880 O.2   110  LYS110     -0.2715
     83  CB        -4.7400   19.8160   25.0340 C.3   110  LYS110      0.0311
     84  CG        -4.6140   18.9350   23.8090 C.3   110  LYS110      0.0038
     85  CD        -5.0210   17.4860   24.1060 C.3   110  LYS110      0.0206
     86  CE        -4.1500   16.9010   25.2370 C.3   110  LYS110      0.1093
     87  NZ        -4.1480   15.3910   25.3650 N.3   110  LYS110     -0.1314
     88  N         -5.7890   22.5020   23.2350 N.am  111  HIS111     -0.1973
     89  CA        -6.9980   23.2170   22.8110 C.3   111  HIS111      0.1656
     90  C         -7.5400   22.6910   21.5150 C.2   111  HIS111      0.2291
     91  O         -6.8170   22.1120   20.7100 O.2   111  HIS111     -0.2864
     92  CB        -6.7140   24.7110   22.6090 C.3   111  HIS111      0.0771
     93  CG        -6.5920   25.4580   23.8910 C.ar  111  HIS111      0.0820
     94  ND1       -7.6650   25.6630   24.7260 N.ar  111  HIS111     -0.2267
     95  CD2       -5.5260   26.0270   24.4950 C.ar  111  HIS111      0.1154
     96  CE1       -7.2660   26.3350   25.7920 C.ar  111  HIS111      0.1986
     97  NE2       -5.9730   26.5730   25.6720 N.ar  111  HIS111     -0.2212
     98  N         -8.3310   23.1820   17.8900 N.3   113  LEU113     -0.1245
     99  CA        -7.6780   23.9930   16.8730 C.3   113  LEU113      0.1561
    100  C         -8.6590   24.5330   15.8370 C.2   113  LEU113      0.2260
    101  O         -9.6280   23.8620   15.4600 O.2   113  LEU113     -0.2867
    102  CB        -6.6090   23.1660   16.1680 C.3   113  LEU113      0.0270
    103  CG        -5.5680   22.4850   17.0730 C.3   113  LEU113      0.0019
    104  CD1       -4.4930   21.7610   16.2380 C.3   113  LEU113      0.0001
    105  CD2       -4.9310   23.4740   18.0370 C.3   113  LEU113      0.0001
    106  N         -5.6600   22.9100    6.7980 N.3   163  LYS163     -0.1245
    107  CA        -4.7570   22.2200    7.7050 C.3   163  LYS163      0.1561
    108  C         -5.0620   20.7360    7.5400 C.2   163  LYS163      0.2260
    109  O         -5.9440   20.2000    8.2060 O.2   163  LYS163     -0.2867
    110  CB        -4.9880   22.7050    9.1350 C.3   163  LYS163      0.0271
    111  CG        -4.0030   22.1410   10.1610 C.3   163  LYS163      0.0035
    112  CD        -4.0620   22.9620   11.4610 C.3   163  LYS163      0.0206
    113  CE        -3.8790   22.0600   12.6750 C.3   163  LYS163      0.1093
    114  NZ        -2.5900   21.3240   12.6240 N.3   163  LYS163     -0.1314
    115  N         -0.8250   29.2400   14.2200 N.3   218  GLU218     -0.1245
    116  CA        -1.9560   28.3650   14.4350 C.3   218  GLU218      0.1567
    117  C         -2.7220   28.8450   15.6520 C.2   218  GLU218      0.2260
    118  O         -2.1210   29.2730   16.6180 O.2   218  GLU218     -0.2867
    119  CB        -1.4720   26.9310   14.6090 C.3   218  GLU218      0.0388
    120  CG        -1.0570   26.3500   13.2670 C.3   218  GLU218      0.1160
    121  CD        -0.5770   24.9160   13.3590 C.2   218  GLU218      0.3649
    122  OE1       -0.2100   24.3780   12.2980 O.co2 218  GLU218     -0.2457
    123  OE2       -0.5640   24.3510   14.4710 O.co2 218  GLU218     -0.2457
    124  N         -1.5030   29.0300   19.6060 N.3   231  VAL231     -0.1231
    125  CA        -0.9650   27.7200   19.9600 C.3   231  VAL231      0.1692
    126  C          0.3190   27.4400   19.1510 C.2   231  VAL231      0.2592
    127  O          0.8720   28.3320   18.5080 O.2   231  VAL231     -0.2718
    128  CB        -2.0570   26.5990   19.8910 C.3   231  VAL231      0.0266
    129  CG1       -3.2900   26.9770   20.7500 C.3   231  VAL231      0.0020
    130  CG2       -2.5070   26.3200   18.4200 C.3   231  VAL231      0.0020
    131  N          0.8110   26.2140   19.1910 N.am  232  ASP232     -0.1974
    132  CA         1.9840   25.8710   18.4010 C.3   232  ASP232      0.1709
    133  C          3.1960   26.7540   18.7410 C.2   232  ASP232      0.2293
    134  O          3.2560   27.3340   19.8110 O.2   232  ASP232     -0.2864
    135  CB         1.6580   25.9340   16.9160 C.3   232  ASP232      0.1436
    136  CG         2.5180   24.9870   16.0950 C.2   232  ASP232      0.3671
    137  OD1        2.7730   23.8550   16.5640 O.co2 232  ASP232     -0.2456
    138  OD2        2.9750   25.2960   14.9690 O.co2 232  ASP232     -0.2456
@<TRIPOS>BOND
     1   106   107    1
     2    13    12    1
     3   108   107    1
     4   108   109    2
     5   107   110    1
     6    12    11    1
     7    11    10    1
     8   110   111    1
     9    10     9    1
    10   111   112    1
    11     9     6    1
    12   112   113    1
    13     6     5    1
    14     6     7    1
    15   122   121   ar
    16   114   113    1
    17     5     3   am
    18     8     7    2
    19   120   121    1
    20   120   119    1
    21   121   123   ar
    22     3     4    2
    23     3     2    1
    24   115   116    1
    25     2     1    1
    26   116   119    1
    27   116   117    1
    28   138   136   ar
    29   101   100    2
    30   117   118    2
    31    24    22    1
    32   100    99    1
    33   136   137   ar
    34   136   135    1
    35   102    99    1
    36   102   103    1
    37   104   103    1
    38    14    15    1
    39    99    98    1
    40   135   132    1
    41    22    21    2
    42    22    23    1
    43   103   105    1
    44    21    20    1
    45    17    16    2
    46    15    18    1
    47    15    16    1
    48    19    18    1
    49    19    20    1
    50   132   133    1
    51   132   131    1
    52   130   128    1
    53   127   126    2
    54   133   134    2
    55    32    30    1
    56   126   131   am
    57   126   125    1
    58   124   125    1
    59   128   125    1
    60   128   129    1
    61    30    29    1
    62    91    90    2
    63    49    51   ar
    64    49    47   ar
    65    29    31    1
    66    29    26    1
    67    51    50   ar
    68    25    26    1
    69    47    46   ar
    70    90    89    1
    71    26    27    1
    72    50    48   ar
    73    61    59   ar
    74    61    60   ar
    75    46    48   ar
    76    46    45    1
    77    28    27    2
    78    92    89    1
    79    92    93    1
    80    59    57   ar
    81    60    58   ar
    82    89    88    1
    83    45    42    1
    84    88    81   am
    85    39    38    1
    86    57    58   ar
    87    57    56    1
    88    42    43    1
    89    42    41    1
    90    43    44    2
    91    84    85    1
    92    84    83    1
    93    93    95   ar
    94    93    94   ar
    95    85    86    1
    96    56    53    1
    97    40    38    1
    98    81    80    1
    99    81    82    2
   100    95    97   ar
   101    38    37    1
   102    52    53    1
   103    94    96   ar
   104    80    83    1
   105    80    79    1
   106    68    66    1
   107    37    34    1
   108    72    71    2
   109    86    87    1
   110    53    54    1
   111    67    66    1
   112    97    96   ar
   113    66    63    1
   114    79    71   am
   115    71    70    1
   116    54    55    2
   117    34    35    1
   118    34    33    1
   119    35    36    2
   120    63    64    1
   121    63    62    1
   122    69    64   am
   123    69    70    1
   124    64    65    2
   125    70    73    1
   126    73    74    1
   127    74    75   ar
   128    74    76   ar
   129    75    77   ar
   130    76    78   ar
   131    77    78   ar
