@<TRIPOS>MOLECULE
tmp/1obhA03.pdb
 140 136 0 0 0
SMALL
GASTEIGER

@<TRIPOS>ATOM
      1  N        106.8750   51.2970   33.7000 N.3   209  PHE209     -0.1227
      2  CA       106.1220   50.1490   33.2200 C.3   209  PHE209      0.1736
      3  C        106.4040   49.9620   31.7390 C.2   209  PHE209      0.2596
      4  O        106.5440   50.9370   31.0020 O.2   209  PHE209     -0.2718
      5  CB       104.6190   50.3320   33.4040 C.3   209  PHE209      0.0547
      6  CG       103.8170   49.1980   32.8290 C.ar  209  PHE209     -0.0202
      7  CD1      103.8530   47.9360   33.4190 C.ar  209  PHE209     -0.0042
      8  CD2      103.0740   49.3730   31.6620 C.ar  209  PHE209     -0.0042
      9  CE1      103.1650   46.8640   32.8540 C.ar  209  PHE209     -0.0003
     10  CE2      102.3820   48.3100   31.0890 C.ar  209  PHE209     -0.0003
     11  CZ       102.4270   47.0510   31.6850 C.ar  209  PHE209     -0.0000
     12  N        106.4810   48.7100   31.3030 N.am  210  THR210     -0.1939
     13  CA       106.7430   48.4210   29.8960 C.3   210  THR210      0.2028
     14  C        106.2940   47.0210   29.5360 C.2   210  THR210      0.2643
     15  O        106.3380   46.1140   30.3710 O.2   210  THR210     -0.2714
     16  CB       108.2580   48.5390   29.5620 C.3   210  THR210      0.1808
     17  OG1      108.4650   48.3310   28.1590 O.3   210  THR210     -0.2208
     18  CG2      109.0630   47.4950   30.3370 C.3   210  THR210      0.0379
     19  N        105.8500   46.8490   28.2930 N.am  211  THR211     -0.1936
     20  CA       105.4380   45.5360   27.8120 C.3   211  THR211      0.2028
     21  C        106.5920   44.9150   27.0210 C.2   211  THR211      0.2642
     22  O        106.4710   43.8090   26.4960 O.2   211  THR211     -0.2714
     23  CB       104.1800   45.6200   26.9090 C.3   211  THR211      0.1808
     24  OG1      104.2800   46.7610   26.0470 O.3   211  THR211     -0.2208
     25  CG2      102.9170   45.7280   27.7630 C.3   211  THR211      0.0379
     26  N        107.7110   45.6360   26.9470 N.am  212  ARG212     -0.1977
     27  CA       108.8970   45.1580   26.2380 C.3   212  ARG212      0.1597
     28  C        110.1090   45.0280   27.1790 C.2   212  ARG212      0.2287
     29  O        111.1780   45.5890   26.9180 O.2   212  ARG212     -0.2864
     30  CB       109.2670   46.1050   25.0830 C.3   212  ARG212      0.0334
     31  CG       108.2680   46.1760   23.9140 C.3   212  ARG212      0.0492
     32  CD       107.9710   44.8090   23.2910 C.3   212  ARG212      0.2205
     33  NE       109.1410   44.1230   22.7350 N.pl3 212  ARG212     -0.0865
     34  CZ       109.7660   44.4560   21.6070 C.cat 212  ARG212      0.5346
     35  NH1      109.3530   45.4900   20.8770 N.pl3 212  ARG212      0.1354
     36  NH2      110.8040   43.7350   21.1970 N.pl3 212  ARG212      0.1354
     37  N        100.2520   64.1390   22.2240 N.3   259  GLN259     -0.1245
     38  CA       100.4680   62.8070   21.6760 C.3   259  GLN259      0.1566
     39  C        100.1190   62.8020   20.1890 C.2   259  GLN259      0.2260
     40  O         99.9910   61.7440   19.5730 O.2   259  GLN259     -0.2867
     41  CB        99.5990   61.7870   22.4180 C.3   259  GLN259      0.0367
     42  CG       100.0120   60.3370   22.1950 C.3   259  GLN259      0.0905
     43  CD        99.0350   59.3410   22.8050 C.2   259  GLN259      0.2608
     44  OE1       99.2680   58.1310   22.7840 O.2   259  GLN259     -0.2717
     45  NE2       97.9310   59.8490   23.3450 N.am  259  GLN259     -0.0878
     46  N        105.6570   64.3490   24.8070 N.3   290  TYR290     -0.1227
     47  CA       105.0060   63.1860   24.2210 C.3   290  TYR290      0.1736
     48  C        104.6800   62.1020   25.2330 C.2   290  TYR290      0.2595
     49  O        103.9750   61.1410   24.9200 O.2   290  TYR290     -0.2718
     50  CB       105.8410   62.6290   23.0620 C.3   290  TYR290      0.0548
     51  CG       107.0190   61.7520   23.4280 C.ar  290  TYR290     -0.0200
     52  CD1      106.8760   60.3690   23.5230 C.ar  290  TYR290     -0.0009
     53  CD2      108.2950   62.2920   23.5810 C.ar  290  TYR290     -0.0009
     54  CE1      107.9750   59.5430   23.7440 C.ar  290  TYR290      0.0417
     55  CE2      109.3990   61.4760   23.8070 C.ar  290  TYR290      0.0417
     56  CZ       109.2330   60.1010   23.8820 C.ar  290  TYR290      0.1957
     57  OH       110.3260   59.2800   24.0610 O.3   290  TYR290     -0.2866
     58  N        105.1820   62.2620   26.4530 N.am  291  VAL291     -0.1966
     59  CA       104.9100   61.3000   27.5150 C.3   291  VAL291      0.1727
     60  C        103.8580   61.9010   28.4500 C.2   291  VAL291      0.2616
     61  O        104.0110   63.0190   28.9390 O.2   291  VAL291     -0.2715
     62  CB       106.1970   60.9640   28.3100 C.3   291  VAL291      0.0290
     63  CG1      105.8720   60.0490   29.4780 C.3   291  VAL291      0.0023
     64  CG2      107.2110   60.2980   27.3880 C.3   291  VAL291      0.0023
     65  N        102.7820   61.1540   28.6780 N.am  292  LEU292     -0.1977
     66  CA       101.6940   61.6110   29.5340 C.3   292  LEU292      0.1596
     67  C        101.7730   60.9670   30.9130 C.2   292  LEU292      0.2287
     68  O        102.2770   59.8540   31.0580 O.2   292  LEU292     -0.2864
     69  CB       100.3510   61.2800   28.8810 C.3   292  LEU292      0.0297
     70  CG       100.1990   61.7400   27.4260 C.3   292  LEU292      0.0022
     71  CD1       98.8370   61.3090   26.9010 C.3   292  LEU292      0.0001
     72  CD2      100.3580   63.2500   27.3370 C.3   292  LEU292      0.0001
     73  N         99.1500   57.5530   31.8660 N.3   295  TYR295     -0.1227
     74  CA        99.4140   56.1720   31.4830 C.3   295  TYR295      0.1736
     75  C        100.6340   55.5860   32.1940 C.2   295  TYR295      0.2596
     76  O        101.6640   56.2450   32.3420 O.2   295  TYR295     -0.2718
     77  CB        99.5900   56.0750   29.9610 C.3   295  TYR295      0.0548
     78  CG        98.3680   56.4900   29.1900 C.ar  295  TYR295     -0.0200
     79  CD1       97.0790   56.1160   29.4680 C.ar  295  TYR295     -0.0009
     80  CD2       98.5320   57.3920   28.1350 C.ar  295  TYR295     -0.0009
     81  CE1       95.9580   56.5160   28.7320 C.ar  295  TYR295      0.0417
     82  CE2       97.4570   57.8120   27.3740 C.ar  295  TYR295      0.0417
     83  CZ        96.1970   57.4310   27.6980 C.ar  295  TYR295      0.1957
     84  OH        95.0860   57.8900   26.9770 O.3   295  TYR295     -0.2866
     85  N        100.5050   54.3380   32.6310 N.am  296  GLY296     -0.1957
     86  CA       101.5970   53.6790   33.3230 C.3   296  GLY296      0.1869
     87  C        101.9850   54.3920   34.6060 C.2   296  GLY296      0.2309
     88  O        101.1380   54.6610   35.4560 O.2   296  GLY296     -0.2863
     89  N        103.7290   57.2800   34.4200 N.3   298  GLY298     -0.1210
     90  CA       103.9790   58.6590   34.0420 C.3   298  GLY298      0.1956
     91  C        105.4240   58.8320   33.6240 C.2   298  GLY298      0.2612
     92  O        105.8990   59.9460   33.3890 O.2   298  GLY298     -0.2717
     93  N        106.1250   57.7090   33.5380 N.am  299  ALA299     -0.1965
     94  CA       107.5230   57.7010   33.1380 C.3   299  ALA299      0.1728
     95  C        107.7850   56.4570   32.3020 C.2   299  ALA299      0.2616
     96  O        107.1700   55.4140   32.5200 O.2   299  ALA299     -0.2715
     97  CB       108.4240   57.7080   34.3690 C.3   299  ALA299      0.0334
     98  N        108.6940   56.5640   31.3430 N.am  300  ILE300     -0.1963
     99  CA       109.0140   55.4200   30.4990 C.3   300  ILE300      0.1727
    100  C        110.5090   55.2850   30.2900 C.2   300  ILE300      0.2616
    101  O        111.2610   56.2500   30.4350 O.2   300  ILE300     -0.2715
    102  CB       108.3890   55.5370   29.0760 C.3   300  ILE300      0.0290
    103  CG1      108.9540   56.7710   28.3660 C.3   300  ILE300      0.0022
    104  CG2      106.8650   55.5850   29.1590 C.3   300  ILE300      0.0023
    105  CD1      108.6370   56.8250   26.8800 C.3   300  ILE300      0.0001
    106  N        110.9310   54.0730   29.9600 N.am  301  MET301     -0.1977
    107  CA       112.3250   53.8270   29.6490 C.3   301  MET301      0.1605
    108  C        112.3200   53.9200   28.1270 C.2   301  MET301      0.2287
    109  O        111.4170   53.3920   27.4720 O.2   301  MET301     -0.2864
    110  CB       112.7580   52.4290   30.0970 C.3   301  MET301      0.0413
    111  CG       112.1030   51.2850   29.3440 C.3   301  MET301      0.0598
    112  SD       112.7610   49.7120   29.9000 S.3   301  MET301     -0.1393
    113  CE       112.1930   48.6220   28.6420 C.3   301  MET301      0.0692
    114  N        111.5930   51.2730   19.2730 N.3   307  ASP307     -0.1239
    115  CA       110.3790   52.0660   19.4400 C.3   307  ASP307      0.1674
    116  C        110.5890   53.3130   18.5830 C.2   307  ASP307      0.2266
    117  O        111.4840   54.1210   18.8510 O.2   307  ASP307     -0.2867
    118  CB       110.1620   52.4420   20.9050 C.3   307  ASP307      0.1410
    119  CG       108.9770   53.3750   21.0920 C.2   307  ASP307      0.3668
    120  OD1      109.0900   54.5630   20.7170 O.co2 307  ASP307     -0.2456
    121  OD2      107.9290   52.9180   21.5980 O.co2 307  ASP307     -0.2456
    122  N        108.9910   56.1640   18.2140 N.3   309  ARG309     -0.1231
    123  CA       108.9110   57.4820   18.8400 C.3   309  ARG309      0.1694
    124  C        110.2260   57.7770   19.5580 C.2   309  ARG309      0.2592
    125  O        110.7910   58.8630   19.4190 O.2   309  ARG309     -0.2718
    126  CB       107.7570   57.5560   19.8450 C.3   309  ARG309      0.0321
    127  CG       106.4150   57.9470   19.2490 C.3   309  ARG309      0.0489
    128  CD       105.3910   58.2040   20.3480 C.3   309  ARG309      0.2205
    129  NE       104.0680   58.5270   19.8150 N.pl3 309  ARG309     -0.0865
    130  CZ       103.0210   58.8780   20.5610 C.cat 309  ARG309      0.5346
    131  NH1      103.1310   58.9560   21.8840 N.pl3 309  ARG309      0.1354
    132  NH2      101.8570   59.1500   19.9820 N.pl3 309  ARG309      0.1354
    133  N        110.7110   56.8090   20.3270 N.am  310  ASP310     -0.1974
    134  CA       111.9660   56.9880   21.0400 C.3   310  ASP310      0.1709
    135  C        113.1060   57.1840   20.0380 C.2   310  ASP310      0.2293
    136  O        114.0530   57.9260   20.3020 O.2   310  ASP310     -0.2864
    137  CB       112.2540   55.7770   21.9410 C.3   310  ASP310      0.1436
    138  CG       111.1830   55.5660   23.0030 C.2   310  ASP310      0.3671
    139  OD1      110.4960   56.5510   23.3640 O.co2 310  ASP310     -0.2456
    140  OD2      111.0400   54.4210   23.4880 O.co2 310  ASP310     -0.2456
@<TRIPOS>BOND
     1   122   123    1
     2   116   117    2
     3   116   115    1
     4   123   124    1
     5   123   126    1
     6   127   126    1
     7   127   128    1
     8   114   115    1
     9   125   124    2
    10   115   118    1
    11   124   133   am
    12    40    39    2
    13   129   128    1
    14   129   130    2
    15   132   130    1
    16   135   136    2
    17   135   134    1
    18    39    38    1
    19   133   134    1
    20   130   131    1
    21   120   119   ar
    22    35    34    1
    23   118   119    1
    24   134   137    1
    25   119   121   ar
    26    36    34    1
    27    34    33    2
    28    38    37    1
    29    38    41    1
    30   137   138    1
    31    42    41    1
    32    42    43    1
    33    33    32    1
    34    44    43    2
    35    43    45   am
    36   138   139   ar
    37   138   140   ar
    38    50    51    1
    39    50    47    1
    40    32    31    1
    41    51    52   ar
    42    51    53   ar
    43    52    54   ar
    44    53    55   ar
    45    54    56   ar
    46    55    56   ar
    47    56    57    1
    48    31    30    1
    49    47    46    1
    50    47    48    1
    51    49    48    2
    52    30    27    1
    53    48    58   am
    54    24    23    1
    55    27    26    1
    56    27    28    1
    57    58    59    1
    58    22    21    2
    59   105   103    1
    60    71    70    1
    61    23    25    1
    62    23    20    1
    63    29    28    2
    64    26    21   am
    65    84    83    1
    66    21    20    1
    67    72    70    1
    68    82    83   ar
    69    82    80   ar
    70    64    62    1
    71    70    69    1
    72   109   108    2
    73    59    62    1
    74    59    60    1
    75    83    81   ar
    76    20    19    1
    77   108   107    1
    78    80    78   ar
    79    17    16    1
    80    19    14   am
    81    62    63    1
    82   103   102    1
    83    60    65   am
    84    60    61    2
    85   113   112    1
    86    65    66    1
    87    81    79   ar
    88    69    66    1
    89   102   104    1
    90   102    99    1
    91    78    79   ar
    92    78    77    1
    93   111   112    1
    94   111   110    1
    95    66    67    1
    96    14    13    1
    97    14    15    2
    98    16    13    1
    99    16    18    1
   100   107   106    1
   101   107   110    1
   102    13    12    1
   103   106   100   am
   104    77    74    1
   105   100   101    2
   106   100    99    1
   107    99    98    1
   108    67    68    2
   109     4     3    2
   110    10     8   ar
   111    10    11   ar
   112    12     3   am
   113    98    95   am
   114    74    73    1
   115    74    75    1
   116     8     6   ar
   117    11     9   ar
   118     3     2    1
   119    75    76    2
   120    75    85   am
   121    95    96    2
   122    95    94    1
   123    85    86    1
   124     6     5    1
   125     6     7   ar
   126     9     7   ar
   127    94    93    1
   128    94    97    1
   129     2     5    1
   130     2     1    1
   131    86    87    1
   132    92    91    2
   133    93    91   am
   134    91    90    1
   135    90    89    1
   136    87    88    2
