@<TRIPOS>MOLECULE
tmp/1oblA00.pdb
 99 93 0 0 0
SMALL
GASTEIGER

@<TRIPOS>ATOM
      1  N          7.1210   34.0570   16.7920 N.3   111  ALA111     -0.1231
      2  CA         6.4620   33.1270   15.8830 C.3   111  ALA111      0.1694
      3  C          4.9630   32.9480   16.0980 C.2   111  ALA111      0.2593
      4  O          4.4380   31.8470   15.9030 O.2   111  ALA111     -0.2718
      5  CB         7.1610   31.7600   15.9410 C.3   111  ALA111      0.0304
      6  N          4.2700   34.0210   16.4780 N.am  112  SER112     -0.1938
      7  CA         2.8300   33.9470   16.6970 C.3   112  SER112      0.2055
      8  C          2.0360   34.6660   15.5880 C.2   112  SER112      0.2642
      9  O          2.5080   34.7570   14.4550 O.2   112  SER112     -0.2714
     10  CB         2.4800   34.5090   18.0740 C.3   112  SER112      0.2130
     11  OG         1.1710   34.1230   18.4510 O.3   112  SER112     -0.2179
     12  N          0.8480   35.1780   15.9140 N.am  113  ARG113     -0.1977
     13  CA        -0.0320   35.8430   14.9350 C.3   113  ARG113      0.1597
     14  C          0.2610   37.2710   14.4470 C.2   113  ARG113      0.2287
     15  O         -0.2480   37.6730   13.4000 O.2   113  ARG113     -0.2864
     16  CB        -1.4760   35.8480   15.4430 C.3   113  ARG113      0.0334
     17  CG        -2.0810   34.4940   15.7270 C.3   113  ARG113      0.0492
     18  CD        -3.6020   34.5810   15.6740 C.3   113  ARG113      0.2205
     19  NE        -4.1380   35.6890   16.4660 N.pl3 113  ARG113     -0.0865
     20  CZ        -4.1350   35.7400   17.7950 C.cat 113  ARG113      0.5346
     21  NH1       -3.6250   34.7410   18.5040 N.pl3 113  ARG113      0.1354
     22  NH2       -4.6460   36.7950   18.4180 N.pl3 113  ARG113      0.1354
     23  N          2.2200   33.5610    7.9210 N.3   130  GLY130     -0.1210
     24  CA         3.0380   33.5990    9.1210 C.3   130  GLY130      0.1956
     25  C          3.1590   32.2010    9.7110 C.2   130  GLY130      0.2612
     26  O          2.4580   31.2910    9.2670 O.2   130  GLY130     -0.2717
     27  N          4.0360   32.0110   10.6970 N.am  131  SER131     -0.1952
     28  CA         4.9090   33.0640   11.2080 C.3   131  SER131      0.1924
     29  C          6.2320   33.1320   10.4450 C.2   131  SER131      0.2314
     30  O          6.9810   34.1040   10.5840 O.2   131  SER131     -0.2863
     31  CB         5.1900   32.8370   12.6960 C.3   131  SER131      0.2116
     32  OG         5.7780   31.5630   12.9110 O.3   131  SER131     -0.2180
     33  N          4.4930   25.6040   14.7630 N.3   152  THR152     -0.1203
     34  CA         3.8840   25.2640   16.0380 C.3   152  THR152      0.1994
     35  C          2.4220   24.9490   15.7180 C.2   152  THR152      0.2618
     36  O          1.8520   23.9710   16.2070 O.2   152  THR152     -0.2717
     37  CB         3.9460   26.4580   16.9990 C.3   152  THR152      0.1784
     38  OG1        5.3090   26.8880   17.1370 O.3   152  THR152     -0.2211
     39  CG2        3.3970   26.0730   18.3580 C.3   152  THR152      0.0376
     40  N          1.8350   25.7990   14.8810 N.am  153  GLY153     -0.1942
     41  CA         0.4610   25.6330   14.4440 C.3   153  GLY153      0.2014
     42  C          0.4870   25.3490   12.9550 C.2   153  GLY153      0.2639
     43  O          0.2890   24.2140   12.5310 O.2   153  GLY153     -0.2714
     44  N          0.7530   26.3810   12.1580 N.am  154  GLY154     -0.1939
     45  CA         0.8220   26.2040   10.7170 C.3   154  GLY154      0.2014
     46  C          1.7930   27.1900   10.0900 C.2   154  GLY154      0.2639
     47  O          1.6240   27.5860    8.9390 O.2   154  GLY154     -0.2714
     48  N          2.8290   27.5600   10.8370 N.am  155  SER155     -0.1949
     49  CA         3.8040   28.5430   10.3810 C.3   155  SER155      0.1924
     50  C          4.7480   28.1850    9.2430 C.2   155  SER155      0.2314
     51  O          5.5570   29.0140    8.8370 O.2   155  SER155     -0.2863
     52  CB         4.6150   29.0310   11.5690 C.3   155  SER155      0.2116
     53  OG         3.8300   29.9010   12.3510 O.3   155  SER155     -0.2180
     54  N          1.2900   26.7680    5.7850 N.3   158  ARG158     -0.1245
     55  CA         0.4400   27.8560    5.3330 C.3   158  ARG158      0.1563
     56  C          1.1740   28.9330    4.5430 C.2   158  ARG158      0.2260
     57  O          0.7970   29.2320    3.4140 O.2   158  ARG158     -0.2867
     58  CB        -0.3080   28.5010    6.5060 C.3   158  ARG158      0.0307
     59  CG        -1.3920   29.4600    6.0210 C.3   158  ARG158      0.0489
     60  CD        -2.3620   29.9060    7.1090 C.3   158  ARG158      0.2205
     61  NE        -1.8910   31.0580    7.8750 N.pl3 158  ARG158     -0.0865
     62  CZ        -1.1150   30.9870    8.9500 C.cat 158  ARG158      0.5346
     63  NH1       -0.7020   29.8090    9.4010 N.pl3 158  ARG158      0.1354
     64  NH2       -0.7780   32.0980    9.5960 N.pl3 158  ARG158      0.1354
     65  N          7.9300   28.2690   21.5260 N.3   183  TYR183     -0.1241
     66  CA         6.5720   28.7840   21.6180 C.3   183  TYR183      0.1605
     67  C          5.8770   27.6810   22.4230 C.2   183  TYR183      0.2264
     68  O          5.3170   27.9340   23.4850 O.2   183  TYR183     -0.2867
     69  CB         5.9650   28.9090   20.2160 C.3   183  TYR183      0.0534
     70  CG         4.6100   29.5930   20.1350 C.ar  183  TYR183     -0.0201
     71  CD1        4.0160   29.8470   18.8960 C.ar  183  TYR183     -0.0009
     72  CD2        3.9230   29.9850   21.2810 C.ar  183  TYR183     -0.0009
     73  CE1        2.7760   30.4730   18.8020 C.ar  183  TYR183      0.0417
     74  CE2        2.6800   30.6140   21.1970 C.ar  183  TYR183      0.0417
     75  CZ         2.1150   30.8540   19.9570 C.ar  183  TYR183      0.1957
     76  OH         0.8910   31.4800   19.8680 O.3   183  TYR183     -0.2866
     77  N         -0.8030   24.3580   23.0810 N.3   277  GLN277     -0.1245
     78  CA        -0.0170   25.4860   22.5990 C.3   277  GLN277      0.1566
     79  C          0.0230   26.6680   23.5610 C.2   277  GLN277      0.2260
     80  O          1.0980   27.1370   23.9380 O.2   277  GLN277     -0.2867
     81  CB        -0.5540   25.9610   21.2480 C.3   277  GLN277      0.0367
     82  CG         0.1160   27.2300   20.7250 C.3   277  GLN277      0.0905
     83  CD        -0.3290   27.5850   19.3200 C.2   277  GLN277      0.2608
     84  OE1       -1.5160   27.7580   19.0570 O.2   277  GLN277     -0.2717
     85  NE2        0.6260   27.6950   18.4110 N.am  277  GLN277     -0.0878
     86  N         -2.3430   37.0270    9.2560 N.3   356  THR356     -0.1218
     87  CA        -1.4290   36.1530    8.5290 C.3   356  THR356      0.1862
     88  C         -2.1670   34.8980    8.0760 C.2   356  THR356      0.2287
     89  O         -1.5730   34.0050    7.4710 O.2   356  THR356     -0.2866
     90  CB        -0.2380   35.6980    9.4030 C.3   356  THR356      0.1770
     91  OG1       -0.7170   34.8680   10.4680 O.3   356  THR356     -0.2211
     92  CG2        0.5050   36.8990    9.9820 C.3   356  THR356      0.0375
     93  N         -4.5540   29.0930   10.8640 N.3   359  PRO359     -0.2116
     94  CA        -3.8440   27.8100   10.7850 C.3   359  PRO359      0.1372
     95  C         -4.7210   26.5940   11.0670 C.2   359  PRO359      0.2244
     96  O         -4.2050   25.4880   11.2380 O.2   359  PRO359     -0.2868
     97  CB        -2.7460   27.9380   11.8490 C.3   359  PRO359      0.0268
     98  CG        -2.9620   29.3300   12.5010 C.3   359  PRO359      0.0207
     99  CD        -4.3700   29.7020   12.1900 C.3   359  PRO359      0.0892
@<TRIPOS>BOND
     1    57    56    2
     2    56    55    1
     3    55    54    1
     4    55    58    1
     5    59    58    1
     6    59    60    1
     7    60    61    1
     8    89    88    2
     9    61    62    2
    10    23    24    1
    11    88    87    1
    12    87    86    1
    13    87    90    1
    14    51    50    2
    15    47    46    2
    16    62    63    1
    17    62    64    1
    18    24    25    1
    19    50    49    1
    20    26    25    2
    21    90    92    1
    22    90    91    1
    23    25    27   am
    24    46    45    1
    25    46    48   am
    26    49    48    1
    27    49    52    1
    28    29    30    2
    29    29    28    1
    30    27    28    1
    31    45    44    1
    32    94    93    1
    33    94    95    1
    34    94    97    1
    35    93    99    1
    36    95    96    2
    37    28    31    1
    38    52    53    1
    39    97    98    1
    40    44    42   am
    41    99    98    1
    42    43    42    2
    43    31    32    1
    44    42    41    1
    45    15    14    2
    46    41    40    1
    47    14    13    1
    48     9     8    2
    49    33    34    1
    50    40    35   am
    51    13    16    1
    52    13    12    1
    53    16    17    1
    54     8    12   am
    55     8     7    1
    56    18    17    1
    57    18    19    1
    58    35    34    1
    59    35    36    2
    60     2     5    1
    61     2     3    1
    62     2     1    1
    63     4     3    2
    64    34    37    1
    65     3     6   am
    66    19    20    2
    67     6     7    1
    68     7    10    1
    69    37    38    1
    70    37    39    1
    71    20    22    1
    72    20    21    1
    73    10    11    1
    74    85    83   am
    75    73    71   ar
    76    73    75   ar
    77    71    70   ar
    78    84    83    2
    79    83    82    1
    80    76    75    1
    81    75    74   ar
    82    70    69    1
    83    70    72   ar
    84    69    66    1
    85    82    81    1
    86    74    72   ar
    87    81    78    1
    88    65    66    1
    89    66    67    1
    90    67    68    2
    91    78    77    1
    92    78    79    1
    93    79    80    2
