@<TRIPOS>MOLECULE
tmp/1obtA00.pdb
 124 121 0 0 0
SMALL
GASTEIGER

@<TRIPOS>ATOM
      1  N         64.6650  -25.3910   90.4320 N.3    73  ASN73      -0.1240
      2  CA        63.3070  -24.9340   90.6820 C.3    73  ASN73       0.1653
      3  C         63.2030  -23.6470   91.4930 C.2    73  ASN73       0.2266
      4  O         62.0970  -23.1700   91.7510 O.2    73  ASN73      -0.2867
      5  CB        62.5270  -26.0350   91.3930 C.3    73  ASN73       0.1155
      6  CG        63.0890  -26.4440   92.7460 C.2    73  ASN73       0.2627
      7  OD1       63.8940  -25.7580   93.3700 O.2    73  ASN73      -0.2716
      8  ND2       62.6870  -27.5920   93.2560 N.am   73  ASN73      -0.0877
      9  N         63.5770  -23.1430   94.5930 N.3    75  TYR75      -0.1227
     10  CA        62.9450  -23.2860   95.8880 C.3    75  TYR75       0.1736
     11  C         63.9500  -23.3610   97.0200 C.2    75  TYR75       0.2595
     12  O         65.1210  -23.7040   96.8240 O.2    75  TYR75      -0.2718
     13  CB        62.0360  -24.5040   95.8170 C.3    75  TYR75       0.0548
     14  CG        60.6470  -24.0500   95.3470 C.ar   75  TYR75      -0.0200
     15  CD1       60.0870  -22.8720   95.8870 C.ar   75  TYR75      -0.0009
     16  CD2       59.9270  -24.7720   94.3960 C.ar   75  TYR75      -0.0009
     17  CE1       58.8310  -22.4050   95.5020 C.ar   75  TYR75       0.0417
     18  CE2       58.6650  -24.3170   94.0020 C.ar   75  TYR75       0.0417
     19  CZ        58.1400  -23.1430   94.5590 C.ar   75  TYR75       0.1957
     20  OH        56.9210  -22.6820   94.1430 O.3    75  TYR75      -0.2866
     21  N         63.5370  -22.9280   98.2070 N.am   76  VAL76      -0.1966
     22  CA        64.4110  -22.9000   99.3840 C.3    76  VAL76       0.1727
     23  C         64.5120  -24.3310   99.8790 C.2    76  VAL76       0.2616
     24  O         63.5200  -25.0500   99.9960 O.2    76  VAL76      -0.2715
     25  CB        63.8020  -21.9770  100.4540 C.3    76  VAL76       0.0290
     26  CG1       64.6780  -21.9760  101.6970 C.3    76  VAL76       0.0023
     27  CG2       63.6800  -20.5720   99.9110 C.3    76  VAL76       0.0023
     28  N         65.7280  -24.7510  100.1250 N.am   77  VAL77      -0.1977
     29  CA        65.9870  -26.1160  100.4760 C.3    77  VAL77       0.1596
     30  C         66.4260  -26.3140  101.9220 C.2    77  VAL77       0.2287
     31  O         66.1760  -27.3640  102.5390 O.2    77  VAL77      -0.2864
     32  CB        67.0010  -26.5550   99.3730 C.3    77  VAL77       0.0276
     33  CG1       68.4330  -26.7000   99.8350 C.3    77  VAL77       0.0022
     34  CG2       66.3890  -27.8000   98.7810 C.3    77  VAL77       0.0022
     35  N         64.8700  -28.9930  104.7960 N.3    88  PHE88      -0.1241
     36  CA        63.5750  -29.6480  104.7540 C.3    88  PHE88       0.1605
     37  C         63.7640  -31.1070  104.4130 C.2    88  PHE88       0.2264
     38  O         64.8080  -31.5030  103.8690 O.2    88  PHE88      -0.2867
     39  CB        62.6760  -29.0790  103.6970 C.3    88  PHE88       0.0534
     40  CG        62.2040  -27.6720  103.9410 C.ar   88  PHE88      -0.0203
     41  CD1       61.3430  -27.3990  104.9980 C.ar   88  PHE88      -0.0042
     42  CD2       62.6250  -26.6610  103.0740 C.ar   88  PHE88      -0.0042
     43  CE1       60.8970  -26.0980  105.1800 C.ar   88  PHE88      -0.0003
     44  CE2       62.1730  -25.3590  103.2630 C.ar   88  PHE88      -0.0003
     45  CZ        61.3060  -25.0770  104.3180 C.ar   88  PHE88      -0.0000
     46  N         59.1590  -28.6970  102.3480 N.3   116  GLY116     -0.1210
     47  CA        58.9220  -27.2650  102.2920 C.3   116  GLY116      0.1956
     48  C         57.7690  -26.8120  101.4230 C.2   116  GLY116      0.2612
     49  O         57.6700  -25.6320  101.0880 O.2   116  GLY116     -0.2717
     50  N         56.8640  -27.6790  101.0070 N.am  117  ASN117     -0.1960
     51  CA        55.7820  -27.2420  100.1430 C.3   117  ASN117      0.1819
     52  C         54.7110  -26.4760  100.9240 C.2   117  ASN117      0.2621
     53  O         54.5330  -26.6770  102.1370 O.2   117  ASN117     -0.2715
     54  CB        55.2050  -28.4590   99.4790 C.3   117  ASN117      0.1195
     55  CG        54.5730  -29.4510  100.4300 C.2   117  ASN117      0.2630
     56  OD1       55.2150  -29.9490  101.3590 O.2   117  ASN117     -0.2716
     57  ND2       53.3100  -29.7930  100.2110 N.am  117  ASN117     -0.0877
     58  N         53.9190  -25.6270  100.2600 N.am  118  TYR118     -0.1960
     59  CA        52.9580  -24.7690  100.9460 C.3   118  TYR118      0.1771
     60  C         51.9880  -25.4440  101.8780 C.2   118  TYR118      0.2619
     61  O         51.8680  -24.9760  102.9970 O.2   118  TYR118     -0.2715
     62  CB        52.1200  -23.9530   99.9520 C.3   118  TYR118      0.0574
     63  CG        52.9560  -22.9050   99.2530 C.ar  118  TYR118     -0.0198
     64  CD1       53.4540  -21.8370   99.9910 C.ar  118  TYR118     -0.0009
     65  CD2       53.2580  -23.0300   97.8990 C.ar  118  TYR118     -0.0009
     66  CE1       54.2660  -20.8920   99.3730 C.ar  118  TYR118      0.0417
     67  CE2       54.0750  -22.0860   97.2780 C.ar  118  TYR118      0.0417
     68  CZ        54.5680  -21.0250   98.0210 C.ar  118  TYR118      0.1957
     69  OH        55.3380  -20.0670   97.4140 O.3   118  TYR118     -0.2866
     70  N         51.2980  -26.5270  101.5280 N.am  119  ASP119     -0.1971
     71  CA        50.3390  -27.1420  102.4440 C.3   119  ASP119      0.1709
     72  C         50.8240  -27.5890  103.8000 C.2   119  ASP119      0.2293
     73  O         50.1530  -27.3440  104.8000 O.2   119  ASP119     -0.2864
     74  CB        49.7020  -28.3400  101.8280 C.3   119  ASP119      0.1436
     75  CG        48.7950  -28.0020  100.6760 C.2   119  ASP119      0.3671
     76  OD1       48.2780  -26.8830  100.5920 O.co2 119  ASP119     -0.2456
     77  OD2       48.6120  -28.8860   99.8490 O.co2 119  ASP119     -0.2456
     78  N         53.4930  -26.4740  105.2780 N.3   121  LEU121     -0.1245
     79  CA        53.8630  -25.2280  105.8990 C.3   121  LEU121      0.1561
     80  C         52.6710  -24.4120  106.4020 C.2   121  LEU121      0.2260
     81  O         52.7720  -23.7450  107.4360 O.2   121  LEU121     -0.2867
     82  CB        54.6920  -24.4850  104.8710 C.3   121  LEU121      0.0270
     83  CG        56.1510  -24.1100  105.1710 C.3   121  LEU121      0.0019
     84  CD1       56.9160  -25.1830  105.9130 C.3   121  LEU121      0.0001
     85  CD2       56.8060  -23.8540  103.8340 C.3   121  LEU121      0.0001
     86  N         59.7060  -17.6680  101.0740 N.3   167  ILE167     -0.1245
     87  CA        59.5930  -18.3820   99.8320 C.3   167  ILE167      0.1561
     88  C         58.7830  -17.5530   98.8680 C.2   167  ILE167      0.2260
     89  O         59.1530  -17.5170   97.6880 O.2   167  ILE167     -0.2867
     90  CB        58.9770  -19.7750  100.1220 C.3   167  ILE167      0.0252
     91  CG1       60.0070  -20.6420  100.8190 C.3   167  ILE167      0.0019
     92  CG2       58.5720  -20.4700   98.8270 C.3   167  ILE167      0.0019
     93  CD1       59.4140  -21.8720  101.4970 C.3   167  ILE167      0.0001
     94  N         51.2070  -18.9500   92.0000 N.3   203  GLU203     -0.1231
     95  CA        52.0940  -19.8100   92.7700 C.3   203  GLU203      0.1699
     96  C         51.6770  -21.2720   92.6860 C.2   203  GLU203      0.2592
     97  O         52.4900  -22.1630   92.4580 O.2   203  GLU203     -0.2718
     98  CB        52.0810  -19.4070   94.2180 C.3   203  GLU203      0.0402
     99  CG        52.5990  -18.0060   94.4540 C.3   203  GLU203      0.1161
    100  CD        52.5080  -17.4990   95.8830 C.2   203  GLU203      0.3649
    101  OE1       51.9270  -18.1460   96.7420 O.co2 203  GLU203     -0.2457
    102  OE2       53.0230  -16.4250   96.1340 O.co2 203  GLU203     -0.2457
    103  N         50.4010  -21.5600   92.8290 N.am  204  ASN204     -0.1974
    104  CA        49.9190  -22.9220   92.7400 C.3   204  ASN204      0.1688
    105  C         50.0700  -23.5630   91.3690 C.2   204  ASN204      0.2292
    106  O         50.2500  -24.7830   91.2310 O.2   204  ASN204     -0.2864
    107  CB        48.4620  -22.9550   93.1470 C.3   204  ASN204      0.1181
    108  CG        48.2820  -22.8030   94.6430 C.2   204  ASN204      0.2629
    109  OD1       49.2060  -22.7850   95.4490 O.2   204  ASN204     -0.2716
    110  ND2       47.0510  -22.6750   95.0860 N.am  204  ASN204     -0.0877
    111  N         52.4860  -22.7250   88.9770 N.3   206  TRP206     -0.1241
    112  CA        53.7750  -22.5200   88.3360 C.3   206  TRP206      0.1605
    113  C         54.2450  -23.7690   87.5940 C.2   206  TRP206      0.2264
    114  O         54.6620  -23.6960   86.4310 O.2   206  TRP206     -0.2867
    115  CB        54.8360  -22.1210   89.3850 C.3   206  TRP206      0.0550
    116  CG        56.2250  -21.9130   88.7900 C.ar  206  TRP206      0.0003
    117  CD1       56.4770  -20.9060   87.9000 C.ar  206  TRP206      0.0946
    118  CD2       57.3330  -22.6720   89.0500 C.ar  206  TRP206      0.0152
    119  NE1       57.7390  -21.0200   87.5900 N.ar  206  TRP206     -0.2442
    120  CE2       58.2900  -22.0490   88.2390 C.ar  206  TRP206      0.0810
    121  CE3       57.6800  -23.7820   89.8250 C.ar  206  TRP206      0.0012
    122  CZ2       59.6100  -22.5180   88.1980 C.ar  206  TRP206      0.0191
    123  CZ3       59.0000  -24.2500   89.7850 C.ar  206  TRP206      0.0001
    124  CH2       59.9560  -23.6250   88.9810 C.ar  206  TRP206      0.0015
@<TRIPOS>BOND
     1   114   113    2
     2   119   117   ar
     3   119   120   ar
     4   113   112    1
     5   117   116   ar
     6   122   120   ar
     7   122   124   ar
     8   120   118   ar
     9   112   111    1
    10   112   115    1
    11   116   118   ar
    12   116   115    1
    13   124   123   ar
    14   118   121   ar
    15   123   121   ar
    16     1     2    1
    17     2     5    1
    18     2     3    1
    19   106   105    2
    20   105   104    1
    21     5     6    1
    22     3     4    2
    23    94    95    1
    24    97    96    2
    25    96    95    1
    26    96   103   am
    27   104   103    1
    28   104   107    1
    29     6     8   am
    30     6     7    2
    31    95    98    1
    32   107   108    1
    33    18    16   ar
    34    18    19   ar
    35    20    19    1
    36    98    99    1
    37    16    14   ar
    38    99   100    1
    39    19    17   ar
    40     9    10    1
    41   108   110   am
    42   108   109    2
    43    14    13    1
    44    14    15   ar
    45    17    15   ar
    46    13    10    1
    47   100   102   ar
    48   100   101   ar
    49    10    11    1
    50    12    11    2
    51    11    21   am
    52    67    65   ar
    53    67    68   ar
    54    69    68    1
    55    89    88    2
    56    65    63   ar
    57    68    66   ar
    58    21    22    1
    59    34    32    1
    60    92    90    1
    61    88    87    1
    62    63    62    1
    63    63    64   ar
    64    32    33    1
    65    32    29    1
    66    66    64   ar
    67    22    23    1
    68    22    25    1
    69    54    51    1
    70    54    55    1
    71    87    90    1
    72    87    86    1
    73    77    75   ar
    74    23    24    2
    75    23    28   am
    76    27    25    1
    77    62    59    1
    78    90    91    1
    79    28    29    1
    80    51    52    1
    81    51    50    1
    82    57    55   am
    83    58    52   am
    84    58    59    1
    85    55    56    2
    86    25    26    1
    87    29    30    1
    88    76    75   ar
    89    75    74    1
    90    91    93    1
    91    52    53    2
    92    59    60    1
    93    50    48   am
    94    49    48    2
    95    48    47    1
    96    70    60   am
    97    70    71    1
    98    74    71    1
    99    60    61    2
   100    30    31    2
   101    47    46    1
   102    71    72    1
   103    42    44   ar
   104    42    40   ar
   105    44    45   ar
   106    39    40    1
   107    39    36    1
   108    72    73    2
   109    85    83    1
   110    38    37    2
   111    40    41   ar
   112    45    43   ar
   113    37    36    1
   114    36    35    1
   115    82    83    1
   116    82    79    1
   117    41    43   ar
   118    83    84    1
   119    78    79    1
   120    79    80    1
   121    80    81    2
