@<TRIPOS>MOLECULE
tmp/1obxA00.pdb
 106 103 0 0 0
SMALL
GASTEIGER

@<TRIPOS>ATOM
      1  N         15.7340    7.9610   21.7580 N.3     7  LYS7       -0.1245
      2  CA        17.0090    8.6290   21.8650 C.3     7  LYS7        0.1561
      3  C         17.8820    7.8990   22.8800 C.2     7  LYS7        0.2260
      4  O         17.3910    7.4400   23.9220 O.2     7  LYS7       -0.2867
      5  CB        16.8150   10.1240   22.1890 C.3     7  LYS7        0.0271
      6  CG        16.2440   10.9590   21.0460 C.3     7  LYS7        0.0035
      7  CD        16.0200   12.4250   21.3950 C.3     7  LYS7        0.0206
      8  CE        15.5440   13.2020   20.2040 C.3     7  LYS7        0.1093
      9  NZ        15.4680   14.6700   20.4730 N.3     7  LYS7       -0.1314
     10  N         21.4180   11.7640   23.1360 N.3    11  GLY11      -0.1210
     11  CA        20.3090   12.4900   22.5690 C.3    11  GLY11       0.1956
     12  C         20.0280   12.1200   21.1360 C.2    11  GLY11       0.2612
     13  O         19.3380   12.8530   20.4750 O.2    11  GLY11      -0.2717
     14  N         20.4950   10.9660   20.6650 N.am   12  HIS12      -0.1961
     15  CA        20.3970   10.5770   19.2600 C.3    12  HIS12       0.1787
     16  C         19.6720    9.2510   19.0860 C.2    12  HIS12       0.2620
     17  O         19.9040    8.3010   19.8350 O.2    12  HIS12      -0.2715
     18  CB        21.7720   10.3450   18.6090 C.3    12  HIS12       0.0785
     19  CG        22.6840   11.5100   18.6760 C.ar   12  HIS12       0.0821
     20  ND1       23.9090   11.4630   19.3050 N.ar   12  HIS12      -0.2267
     21  CD2       22.5140   12.7790   18.2630 C.ar   12  HIS12       0.1154
     22  CE1       24.4930   12.6410   19.1760 C.ar   12  HIS12       0.1986
     23  NE2       23.6350   13.4770   18.6190 N.ar   12  HIS12      -0.2212
     24  N         18.8700    9.1910   18.0250 N.am   13  VAL13      -0.1963
     25  CA        18.2830    7.9290   17.5950 C.3    13  VAL13       0.1727
     26  C         19.2310    7.1170   16.7130 C.2    13  VAL13       0.2617
     27  O         19.1200    5.8960   16.7370 O.2    13  VAL13      -0.2715
     28  CB        16.8970    8.0490   17.0000 C.3    13  VAL13       0.0290
     29  CG1       15.9490    8.5850   18.0660 C.3    13  VAL13       0.0023
     30  CG2       16.8730    8.9210   15.8070 C.3    13  VAL13       0.0023
     31  N         20.1860    7.7690   16.0400 N.am   14  GLY14      -0.1940
     32  CA        21.2540    7.0590   15.3250 C.3    14  GLY14       0.2014
     33  C         21.2260    7.0580   13.8130 C.2    14  GLY14       0.2639
     34  O         21.5100    6.0440   13.1950 O.2    14  GLY14      -0.2714
     35  N         20.8800    8.1700   13.1860 N.am   15  PHE15      -0.1959
     36  CA        20.9370    8.2680   11.7290 C.3    15  PHE15       0.1771
     37  C         21.3990    9.6100   11.2490 C.2    15  PHE15       0.2619
     38  O         21.3100   10.6080   11.9400 O.2    15  PHE15      -0.2715
     39  CB        19.6200    7.8230   11.0340 C.3    15  PHE15       0.0574
     40  CG        18.4610    8.7940   11.1500 C.ar   15  PHE15      -0.0200
     41  CD1       17.5460    8.7160   12.1870 C.ar   15  PHE15      -0.0042
     42  CD2       18.3100    9.8480   10.2800 C.ar   15  PHE15      -0.0042
     43  CE1       16.4780    9.5920   12.2900 C.ar   15  PHE15      -0.0003
     44  CE2       17.2590   10.7330   10.3960 C.ar   15  PHE15      -0.0003
     45  CZ        16.3530   10.6160   11.4230 C.ar   15  PHE15      -0.0000
     46  N         21.9470    9.5650   10.0490 N.am   16  ILE16      -0.1963
     47  CA        22.3940   10.7270    9.2980 C.3    16  ILE16       0.1727
     48  C         21.5390   10.8260    8.0640 C.2    16  ILE16       0.2616
     49  O         21.1430    9.8200    7.4890 O.2    16  ILE16      -0.2715
     50  CB        23.8680   10.5380    8.8690 C.3    16  ILE16       0.0290
     51  CG1       24.7290   10.4580   10.1360 C.3    16  ILE16       0.0022
     52  CG2       24.3660   11.7050    8.0250 C.3    16  ILE16       0.0023
     53  CD1       25.1020    9.1100   10.7060 C.3    16  ILE16       0.0001
     54  N         21.1850   12.0450    7.6780 N.am   17  PHE17      -0.1960
     55  CA        20.3910   12.2410    6.4600 C.3    17  PHE17       0.1771
     56  C         20.8870   13.4340    5.6750 C.2    17  PHE17       0.2619
     57  O         21.4960   14.3170    6.2500 O.2    17  PHE17      -0.2715
     58  CB        18.8650   12.3750    6.7640 C.3    17  PHE17       0.0574
     59  CG        18.4480   13.6690    7.3650 C.ar   17  PHE17      -0.0200
     60  CD1       17.9760   14.6720    6.5770 C.ar   17  PHE17      -0.0042
     61  CD2       18.5810   13.9260    8.7080 C.ar   17  PHE17      -0.0042
     62  CE1       17.6220   15.8730    7.1280 C.ar   17  PHE17      -0.0003
     63  CE2       18.2500   15.1350    9.2320 C.ar   17  PHE17      -0.0003
     64  CZ        17.8310   16.1040    8.4160 C.ar   17  PHE17      -0.0000
     65  N         20.5570   13.4710    4.3940 N.am   18  LYS18      -0.1977
     66  CA        20.8990   14.5930    3.5320 C.3    18  LYS18       0.1596
     67  C         19.8670   14.6760    2.4480 C.2    18  LYS18       0.2287
     68  O         19.4720   13.6690    1.9080 O.2    18  LYS18      -0.2864
     69  CB        22.2830   14.3240    2.9060 C.3    18  LYS18       0.0298
     70  CG        22.8050   15.5690    2.2030 C.3    18  LYS18       0.0038
     71  CD        24.2260   15.3590    1.7030 C.3    18  LYS18       0.0206
     72  CE        24.8660   16.6570    1.2420 C.3    18  LYS18       0.1093
     73  NZ        25.5000   17.3980    2.3670 N.3    18  LYS18      -0.1314
     74  N         21.0260    8.5300    4.9640 N.3    23  THR23      -0.1218
     75  CA        22.2730    8.1670    4.2860 C.3    23  THR23       0.1862
     76  C         23.1610    7.2270    5.1090 C.2    23  THR23       0.2287
     77  O         24.0110    6.5460    4.5370 O.2    23  THR23      -0.2866
     78  CB        23.0880    9.4260    3.9690 C.3    23  THR23       0.1770
     79  OG1       23.3120   10.2310    5.1260 O.3    23  THR23      -0.2211
     80  CG2       22.3970   10.3310    2.9350 C.3    23  THR23       0.0375
     81  N         23.9230    4.6870   12.6540 N.3    26  VAL26      -0.1245
     82  CA        24.9100    4.5200   13.7170 C.3    26  VAL26       0.1561
     83  C         24.8970    3.0840   14.2960 C.2    26  VAL26       0.2260
     84  O         23.8300    2.5430   14.6110 O.2    26  VAL26      -0.2867
     85  CB        24.7320    5.5880   14.8130 C.3    26  VAL26       0.0252
     86  CG1       25.6830    5.3500   15.9550 C.3    26  VAL26       0.0019
     87  CG2       24.8410    6.9960   14.2160 C.3    26  VAL26       0.0019
     88  N         15.9890   18.8230   10.9500 N.3    59  ALA59      -0.1245
     89  CA        16.8950   18.7250   12.0800 C.3    59  ALA59       0.1562
     90  C         16.2690   19.3880   13.3100 C.2    59  ALA59       0.2260
     91  O         16.3580   18.8520   14.4140 O.2    59  ALA59      -0.2867
     92  CB        18.2550   19.3710   11.7730 C.3    59  ALA59       0.0290
     93  N         13.7350   17.0810   14.8560 N.3    62  LEU62      -0.1231
     94  CA        14.3930   15.9410   15.5090 C.3    62  LEU62       0.1693
     95  C         15.0050   16.3780   16.8400 C.2    62  LEU62       0.2592
     96  O         14.8690   15.6910   17.8410 O.2    62  LEU62      -0.2718
     97  CB        15.4530   15.3460   14.5670 C.3    62  LEU62       0.0284
     98  CG        14.8640   14.5850   13.3850 C.3    62  LEU62       0.0019
     99  CD1       15.9560   14.3740   12.3310 C.3    62  LEU62       0.0001
    100  CD2       14.2100   13.2520   13.7810 C.3    62  LEU62       0.0001
    101  N         15.6830   17.5180   16.8430 N.am   63  SER63      -0.1952
    102  CA        16.4440   17.9460   18.0060 C.3    63  SER63       0.1924
    103  C         15.5390   18.3730   19.1440 C.2    63  SER63       0.2314
    104  O         15.8370   18.1280   20.3260 O.2    63  SER63      -0.2863
    105  CB        17.3790   19.0690   17.6640 C.3    63  SER63       0.2116
    106  OG        16.7510   20.1890   17.1470 O.3    63  SER63      -0.2180
@<TRIPOS>BOND
     1    72    71    1
     2    72    73    1
     3    71    70    1
     4    68    67    2
     5    70    69    1
     6    67    66    1
     7    69    66    1
     8    80    78    1
     9    66    65    1
    10    78    75    1
    11    78    79    1
    12    75    74    1
    13    75    76    1
    14    65    56   am
    15    77    76    2
    16    56    57    2
    17    56    55    1
    18    55    58    1
    19    55    54    1
    20    60    62   ar
    21    60    59   ar
    22    58    59    1
    23    62    64   ar
    24    59    61   ar
    25    49    48    2
    26    54    48   am
    27    52    50    1
    28    48    47    1
    29    64    63   ar
    30    61    63   ar
    31    50    47    1
    32    50    51    1
    33    47    46    1
    34    46    37   am
    35    51    53    1
    36    42    44   ar
    37    42    40   ar
    38    44    45   ar
    39    88    89    1
    40    39    40    1
    41    39    36    1
    42    40    41   ar
    43    37    36    1
    44    37    38    2
    45    45    43   ar
    46    36    35    1
    47    92    89    1
    48    89    90    1
    49    41    43   ar
    50    99    98    1
    51    81    82    1
    52    35    33   am
    53    34    33    2
    54    90    91    2
    55    98   100    1
    56    98    97    1
    57    82    83    1
    58    82    85    1
    59    33    32    1
    60    87    85    1
    61    83    84    2
    62    97    94    1
    63    85    86    1
    64    93    94    1
    65    32    31    1
    66    94    95    1
    67    30    28    1
    68    31    26   am
    69    26    27    2
    70    26    25    1
    71    95   101   am
    72    95    96    2
    73   101   102    1
    74    28    25    1
    75    28    29    1
    76   106   105    1
    77    25    24    1
    78   105   102    1
    79   102   103    1
    80    24    16   am
    81    21    23   ar
    82    21    19   ar
    83    18    19    1
    84    18    15    1
    85    23    22   ar
    86    19    20   ar
    87    16    15    1
    88    16    17    2
    89   103   104    2
    90    22    20   ar
    91    15    14    1
    92     8     9    1
    93     8     7    1
    94    13    12    2
    95    14    12   am
    96     6     7    1
    97     6     5    1
    98    12    11    1
    99     1     2    1
   100     2     5    1
   101     2     3    1
   102    11    10    1
   103     3     4    2
