@<TRIPOS>MOLECULE
tmp/1oc2B01.pdb
 265 257 0 0 0
SMALL
GASTEIGER

@<TRIPOS>ATOM
      1  N         16.8400   -5.0250   55.1790 N.3    15  ILE15      -0.1245
      2  CA        16.4510   -3.8040   54.5200 C.3    15  ILE15       0.1561
      3  C         17.3100   -3.5580   53.2830 C.2    15  ILE15       0.2260
      4  O         16.8190   -3.0220   52.2670 O.2    15  ILE15      -0.2867
      5  CB        16.5400   -2.6040   55.5320 C.3    15  ILE15       0.0252
      6  CG1       15.5400   -2.8800   56.6480 C.3    15  ILE15       0.0019
      7  CG2       16.3010   -1.2010   54.9050 C.3    15  ILE15       0.0019
      8  CD1       15.6650   -1.8790   57.7760 C.3    15  ILE15       0.0001
      9  N         22.4520   -4.7510   64.0050 N.3    85  SER85      -0.1202
     10  CA        21.1590   -4.0660   64.0170 C.3    85  SER85       0.2020
     11  C         20.2580   -4.3680   65.1820 C.2    85  SER85       0.2619
     12  O         19.1800   -3.8080   65.2350 O.2    85  SER85      -0.2717
     13  CB        20.4030   -4.3720   62.7210 C.3    85  SER85       0.2103
     14  OG        19.8440   -5.6720   62.7690 O.3    85  SER85      -0.2182
     15  N         20.6490   -5.2750   66.0920 N.am   86  HIS86      -0.1961
     16  CA        19.6700   -5.7760   67.0880 C.3    86  HIS86       0.1787
     17  C         19.9900   -5.2760   68.4970 C.2    86  HIS86       0.2620
     18  O         21.0520   -5.5710   69.0620 O.2    86  HIS86      -0.2715
     19  CB        19.6430   -7.2810   67.0800 C.3    86  HIS86       0.0785
     20  CG        18.4590   -7.8400   67.8110 C.ar   86  HIS86       0.0821
     21  ND1       18.4930   -9.0500   68.4760 N.ar   86  HIS86      -0.2267
     22  CD2       17.2250   -7.3150   68.0230 C.ar   86  HIS86       0.1154
     23  CE1       17.3150   -9.2690   69.0400 C.ar   86  HIS86       0.1986
     24  NE2       16.5200   -8.2570   68.7660 N.ar   86  HIS86      -0.2212
     25  N         19.0590   -4.5140   69.0510 N.am   87  ASN87      -0.1958
     26  CA        19.2260   -4.0320   70.3930 C.3    87  ASN87       0.1819
     27  C         19.5790   -5.0960   71.4260 C.2    87  ASN87       0.2621
     28  O         20.4450   -4.8710   72.2720 O.2    87  ASN87      -0.2715
     29  CB        17.9620   -3.2960   70.8290 C.3    87  ASN87       0.1195
     30  CG        17.9200   -1.8890   70.3120 C.2    87  ASN87       0.2630
     31  OD1       18.7700   -1.0590   70.6750 O.2    87  ASN87      -0.2716
     32  ND2       16.9650   -1.5760   69.4720 N.am   87  ASN87      -0.0877
     33  N         18.8970   -6.2320   71.3840 N.am   88  ASP88      -0.1971
     34  CA        19.1320   -7.3090   72.3860 C.3    88  ASP88       0.1709
     35  C         20.5150   -7.9080   72.2680 C.2    88  ASP88       0.2293
     36  O         21.1360   -8.1630   73.2900 O.2    88  ASP88      -0.2864
     37  CB        18.0950   -8.4040   72.3660 C.3    88  ASP88       0.1436
     38  CG        16.7140   -7.8920   72.7390 C.2    88  ASP88       0.3671
     39  OD1       15.6980   -8.2030   72.0250 O.co2  88  ASP88      -0.2456
     40  OD2       16.6120   -7.1260   73.7220 O.co2  88  ASP88      -0.2456
     41  N         18.5300    5.2590   61.8810 N.3   124  THR124     -0.1203
     42  CA        17.3670    4.8060   62.5680 C.3   124  THR124      0.1994
     43  C         16.8140    5.9020   63.4250 C.2   124  THR124      0.2618
     44  O         17.5560    6.7870   63.8670 O.2   124  THR124     -0.2717
     45  CB        17.7050    3.5570   63.4000 C.3   124  THR124      0.1784
     46  OG1       16.6160    3.1460   64.2720 O.3   124  THR124     -0.2211
     47  CG2       18.8420    3.7540   64.3430 C.3   124  THR124      0.0376
     48  N         15.5330    5.8110   63.7170 N.am  125  ASP125     -0.1959
     49  CA        14.8600    6.6940   64.6420 C.3   125  ASP125      0.1840
     50  C         15.3360    6.5390   66.0890 C.2   125  ASP125      0.2621
     51  O         15.1390    7.4730   66.9030 O.2   125  ASP125     -0.2715
     52  CB        13.3120    6.5640   64.5150 C.3   125  ASP125      0.1450
     53  CG        12.7410    5.2230   64.9640 C.2   125  ASP125      0.3671
     54  OD1       13.4460    4.2110   65.1430 O.co2 125  ASP125     -0.2456
     55  OD2       11.4610    5.0270   65.0440 O.co2 125  ASP125     -0.2456
     56  N         15.9560    5.4230   66.4190 N.am  126  GLU126     -0.1977
     57  CA        16.4090    5.1810   67.7870 C.3   126  GLU126      0.1602
     58  C         17.5090    6.1500   68.2220 C.2   126  GLU126      0.2287
     59  O         17.7690    6.2950   69.4340 O.2   126  GLU126     -0.2864
     60  CB        16.8490    3.7690   68.0050 C.3   126  GLU126      0.0415
     61  CG        15.8090    2.7770   67.5810 C.3   126  GLU126      0.1163
     62  CD        15.9860    1.4320   68.2040 C.2   126  GLU126      0.3649
     63  OE1       15.0790    0.5880   67.9650 O.co2 126  GLU126     -0.2457
     64  OE2       16.9550    1.2270   68.9310 O.co2 126  GLU126     -0.2457
     65  N         23.4600   -0.4450   70.7100 N.3   160  TYR160     -0.1241
     66  CA        23.0740   -0.3600   69.2910 C.3   160  TYR160      0.1605
     67  C         22.7670    1.0660   68.8750 C.2   160  TYR160      0.2264
     68  O         23.3350    1.5800   67.9300 O.2   160  TYR160     -0.2867
     69  CB        21.8660   -1.2360   68.9870 C.3   160  TYR160      0.0534
     70  CG        21.2380   -0.8780   67.6570 C.ar  160  TYR160     -0.0201
     71  CD1       21.9490   -1.0970   66.4590 C.ar  160  TYR160     -0.0009
     72  CD2       19.9750   -0.3080   67.5860 C.ar  160  TYR160     -0.0009
     73  CE1       21.3600   -0.7590   65.2320 C.ar  160  TYR160      0.0417
     74  CE2       19.4010    0.0300   66.3430 C.ar  160  TYR160      0.0417
     75  CZ        20.1020   -0.2160   65.1870 C.ar  160  TYR160      0.1957
     76  OH        19.5400    0.1600   63.9950 O.3   160  TYR160     -0.2866
     77  N         15.0290    6.2420   59.8420 N.3   187  CYS187     -0.1221
     78  CA        13.7720    5.5900   59.5360 C.3   187  CYS187      0.1808
     79  C         13.2270    4.8850   60.7590 C.2   187  CYS187      0.2602
     80  O         13.9680    4.3810   61.6160 O.2   187  CYS187     -0.2717
     81  CB        13.9720    4.5940   58.4020 C.3   187  CYS187      0.0970
     82  SG        12.4770    3.8460   57.7060 S.3   187  CYS187     -0.0800
     83  N         11.9280    4.7850   60.7930 N.am  188  SER188     -0.1938
     84  CA        11.2020    4.0360   61.8080 C.3   188  SER188      0.2055
     85  C         11.2960    2.5200   61.5540 C.2   188  SER188      0.2643
     86  O         11.9350    2.0900   60.5970 O.2   188  SER188     -0.2714
     87  CB         9.7700    4.5790   61.8480 C.3   188  SER188      0.2130
     88  OG         9.1750    4.3960   60.6030 O.3   188  SER188     -0.2179
     89  N         10.7060    1.7170   62.4540 N.am  189  ASN189     -0.1957
     90  CA        10.7770    0.2610   62.3990 C.3   189  ASN189      0.1819
     91  C         10.2580   -0.3310   61.0780 C.2   189  ASN189      0.2621
     92  O          9.0930   -0.1920   60.7490 O.2   189  ASN189     -0.2715
     93  CB         9.9290   -0.3360   63.5400 C.3   189  ASN189      0.1195
     94  CG        10.6560   -0.3230   64.8530 C.2   189  ASN189      0.2630
     95  OD1       11.0120    0.7360   65.3670 O.2   189  ASN189     -0.2716
     96  ND2       10.8420   -1.5130   65.4440 N.am  189  ASN189     -0.0877
     97  N         11.1270   -1.0310   60.3640 N.am  190  ASN190     -0.1972
     98  CA        10.7070   -1.7110   59.1510 C.3   190  ASN190      0.1688
     99  C         10.1310   -3.0680   59.4470 C.2   190  ASN190      0.2292
    100  O         10.4510   -3.7020   60.4590 O.2   190  ASN190     -0.2864
    101  CB        11.8820   -1.9260   58.1900 C.3   190  ASN190      0.1181
    102  CG        12.3350   -0.6730   57.4770 C.2   190  ASN190      0.2629
    103  OD1       12.8030   -0.7500   56.3280 O.2   190  ASN190     -0.2716
    104  ND2       12.3130    0.5000   58.1770 N.am  190  ASN190     -0.0877
    105  N         13.0430  -10.3460   56.7860 N.3   195  GLN195     -0.1245
    106  CA        13.5580   -9.8790   58.0810 C.3   195  GLN195      0.1566
    107  C         14.0090  -11.0650   58.9580 C.2   195  GLN195      0.2260
    108  O         13.3490  -12.0850   59.0390 O.2   195  GLN195     -0.2867
    109  CB        12.5370   -8.9610   58.8130 C.3   195  GLN195      0.0367
    110  CG        13.1990   -8.3020   60.0100 C.3   195  GLN195      0.0905
    111  CD        12.3620   -7.2780   60.7320 C.2   195  GLN195      0.2608
    112  OE1       12.8980   -6.2010   61.2010 O.2   195  GLN195     -0.2717
    113  NE2       11.0620   -7.5190   60.7760 N.am  195  GLN195     -0.0878
    114  N         15.0180  -13.0540   64.5520 N.3   198  GLU198     -0.1231
    115  CA        15.2820  -12.5040   65.8800 C.3   198  GLU198      0.1699
    116  C         14.4220  -11.2920   66.1680 C.2   198  GLU198      0.2592
    117  O         14.2020  -10.9500   67.3130 O.2   198  GLU198     -0.2718
    118  CB        16.7760  -12.1900   66.0760 C.3   198  GLU198      0.0402
    119  CG        17.2470  -10.9230   65.3790 C.3   198  GLU198      0.1161
    120  CD        18.7570  -10.7100   65.4410 C.2   198  GLU198      0.3649
    121  OE1       19.4650  -11.4160   66.2590 O.co2 198  GLU198     -0.2457
    122  OE2       19.2130   -9.7890   64.6940 O.co2 198  GLU198     -0.2457
    123  N         13.9230  -10.6320   65.1390 N.am  199  LYS199     -0.1966
    124  CA        13.2230   -9.3830   65.3050 C.3   199  LYS199      0.1728
    125  C         11.7540   -9.6590   65.6030 C.2   199  LYS199      0.2616
    126  O         11.2450  -10.7370   65.2970 O.2   199  LYS199     -0.2715
    127  CB        13.3470   -8.5260   64.0600 C.3   199  LYS199      0.0311
    128  CG        14.7930   -8.1830   63.7220 C.3   199  LYS199      0.0038
    129  CD        15.4400   -7.3750   64.7860 C.3   199  LYS199      0.0206
    130  CE        16.9140   -7.0330   64.4820 C.3   199  LYS199      0.1093
    131  NZ        17.0310   -5.8200   63.5760 N.3   199  LYS199     -0.1314
    132  N         11.1110   -8.6460   66.1440 N.am  200  PHE200     -0.1974
    133  CA         9.7800   -8.8200   66.7810 C.3   200  PHE200      0.1639
    134  C          8.7510   -9.4820   65.8990 C.2   200  PHE200      0.2290
    135  O          8.2390  -10.5250   66.2630 O.2   200  PHE200     -0.2864
    136  CB         9.2710   -7.4670   67.2370 C.3   200  PHE200      0.0560
    137  CG         7.8970   -7.4970   67.8360 C.ar  200  PHE200     -0.0200
    138  CD1        7.6010   -8.3510   68.8660 C.ar  200  PHE200     -0.0042
    139  CD2        6.9450   -6.6370   67.3840 C.ar  200  PHE200     -0.0042
    140  CE1        6.3230   -8.3430   69.4570 C.ar  200  PHE200     -0.0003
    141  CE2        5.6530   -6.6070   67.9620 C.ar  200  PHE200     -0.0003
    142  CZ         5.3560   -7.4680   68.9880 C.ar  200  PHE200     -0.0000
    143  N          9.8100  -13.0130   64.5410 N.3   203  ARG203     -0.1231
    144  CA         9.8760  -13.9620   65.6530 C.3   203  ARG203      0.1694
    145  C          8.5050  -14.5080   66.0250 C.2   203  ARG203      0.2591
    146  O          8.3510  -15.7050   66.2440 O.2   203  ARG203     -0.2718
    147  CB        10.4810  -13.3320   66.8980 C.3   203  ARG203      0.0321
    148  CG        10.7280  -14.3430   68.0100 C.3   203  ARG203      0.0489
    149  CD        11.4300  -13.7940   69.1890 C.3   203  ARG203      0.2205
    150  NE        11.7810  -14.8560   70.1100 N.pl3 203  ARG203     -0.0865
    151  CZ        11.9530  -14.6980   71.4130 C.cat 203  ARG203      0.5346
    152  NH1       11.8710  -13.5100   71.9610 N.pl3 203  ARG203      0.1354
    153  NH2       12.2950  -15.7210   72.1710 N.pl3 203  ARG203      0.1354
    154  N          7.5070  -13.6510   66.0960 N.am  204  GLN204     -0.1979
    155  CA         6.1850  -14.1200   66.5520 C.3   204  GLN204      0.1601
    156  C          5.5620  -14.9910   65.4740 C.2   204  GLN204      0.2287
    157  O          5.0390  -16.0900   65.7670 O.2   204  GLN204     -0.2864
    158  CB         5.2800  -12.9210   66.8840 C.3   204  GLN204      0.0394
    159  CG         5.8640  -11.8460   67.8470 C.3   204  GLN204      0.0908
    160  CD         6.8090  -12.3730   68.8890 C.2   204  GLN204      0.2608
    161  OE1        6.5430  -13.3830   69.5070 O.2   204  GLN204     -0.2717
    162  NE2        7.9510  -11.6890   69.0790 N.am  204  GLN204     -0.0878
    163  N          6.3640  -14.2880   72.1720 N.3   215  LYS215     -0.1231
    164  CA         7.0050  -13.7090   73.3420 C.3   215  LYS215      0.1693
    165  C          6.8540  -12.2060   73.3150 C.2   215  LYS215      0.2592
    166  O          7.2790  -11.5630   72.3600 O.2   215  LYS215     -0.2718
    167  CB         8.4960  -14.0560   73.3920 C.3   215  LYS215      0.0285
    168  CG         8.8160  -15.5690   73.1900 C.3   215  LYS215      0.0035
    169  CD         8.3660  -16.3710   74.3510 C.3   215  LYS215      0.0206
    170  CE         8.6880  -17.8630   74.1880 C.3   215  LYS215      0.1093
    171  NZ         8.2380  -18.5480   75.4120 N.3   215  LYS215     -0.1314
    172  N          6.2340  -11.6670   74.3480 N.am  216  LEU216     -0.1966
    173  CA         5.9850  -10.2240   74.4630 C.3   216  LEU216      0.1728
    174  C          6.7770   -9.6740   75.6490 C.2   216  LEU216      0.2616
    175  O          6.6720  -10.1560   76.7540 O.2   216  LEU216     -0.2715
    176  CB         4.5090  -10.0110   74.7320 C.3   216  LEU216      0.0311
    177  CG         4.0210   -8.5710   74.7140 C.3   216  LEU216      0.0022
    178  CD1        4.1610   -7.9490   73.3400 C.3   216  LEU216      0.0001
    179  CD2        2.5700   -8.5670   75.1300 C.3   216  LEU216      0.0001
    180  N          7.5920   -8.6680   75.4030 N.am  217  TYR217     -0.1974
    181  CA         8.4180   -8.0990   76.4500 C.3   217  TYR217      0.1639
    182  C          7.5430   -7.2770   77.3950 C.2   217  TYR217      0.2290
    183  O          6.8620   -6.3300   76.9790 O.2   217  TYR217     -0.2864
    184  CB         9.4690   -7.1450   75.8300 C.3   217  TYR217      0.0560
    185  CG        10.5670   -7.8100   75.0660 C.ar  217  TYR217     -0.0198
    186  CD1       10.5290   -9.1680   74.7320 C.ar  217  TYR217     -0.0009
    187  CD2       11.6570   -7.0890   74.6610 C.ar  217  TYR217     -0.0009
    188  CE1       11.5880   -9.7570   74.0250 C.ar  217  TYR217      0.0417
    189  CE2       12.6750   -7.6680   73.9670 C.ar  217  TYR217      0.0417
    190  CZ        12.6500   -8.9950   73.6440 C.ar  217  TYR217      0.1957
    191  OH        13.6690   -9.6050   72.9310 O.3   217  TYR217     -0.2866
    192  N          4.9990   -0.7250   74.8040 N.3   222  ASN222     -0.1240
    193  CA         5.9350    0.0240   73.9890 C.3   222  ASN222      0.1653
    194  C          5.3600    0.2150   72.6020 C.2   222  ASN222      0.2266
    195  O          4.6650   -0.6810   72.0830 O.2   222  ASN222     -0.2867
    196  CB         7.2700   -0.7200   73.9090 C.3   222  ASN222      0.1155
    197  CG         7.8190   -1.0700   75.2770 C.2   222  ASN222      0.2627
    198  OD1        7.2810   -1.9650   75.9240 O.2   222  ASN222     -0.2716
    199  ND2        8.8330   -0.2950   75.7660 N.am  222  ASN222     -0.0877
    200  N          6.0200    1.2750   68.5500 N.3   224  ARG224     -0.1245
    201  CA         6.9360    1.3660   67.3980 C.3   224  ARG224      0.1563
    202  C          6.1330    1.9170   66.2030 C.2   224  ARG224      0.2260
    203  O          4.9260    1.7400   66.1460 O.2   224  ARG224     -0.2867
    204  CB         7.5670   -0.0180   67.1200 C.3   224  ARG224      0.0307
    205  CG         8.4040   -0.5240   68.3090 C.3   224  ARG224      0.0489
    206  CD         9.6260    0.2680   68.4970 C.3   224  ARG224      0.2205
    207  NE        10.5310   -0.1390   69.5840 N.pl3 224  ARG224     -0.0865
    208  CZ        10.4510    0.2620   70.8450 C.cat 224  ARG224      0.5346
    209  NH1        9.4460    0.9880   71.2850 N.pl3 224  ARG224      0.1354
    210  NH2       11.3890   -0.0740   71.6980 N.pl3 224  ARG224      0.1354
    211  N          5.5970    1.6820   62.4530 N.3   226  TRP226     -0.1241
    212  CA         5.9270    0.5900   61.5160 C.3   226  TRP226      0.1605
    213  C          5.8460    1.1300   60.0860 C.2   226  TRP226      0.2264
    214  O          4.9130    1.8330   59.7170 O.2   226  TRP226     -0.2867
    215  CB         4.9740   -0.6020   61.6860 C.3   226  TRP226      0.0550
    216  CG         5.1800   -1.2980   62.9820 C.ar  226  TRP226      0.0003
    217  CD1        4.4600   -1.1040   64.1390 C.ar  226  TRP226      0.0946
    218  CD2        6.2760   -2.1570   63.3420 C.ar  226  TRP226      0.0152
    219  NE1        4.9830   -1.8750   65.1470 N.ar  226  TRP226     -0.2442
    220  CE2        6.1090   -2.5110   64.6930 C.ar  226  TRP226      0.0810
    221  CE3        7.3350   -2.7380   62.6310 C.ar  226  TRP226      0.0012
    222  CZ2        6.9780   -3.3960   65.3520 C.ar  226  TRP226      0.0191
    223  CZ3        8.2020   -3.5720   63.2940 C.ar  226  TRP226      0.0001
    224  CH2        8.0230   -3.9010   64.6420 C.ar  226  TRP226      0.0015
    225  N          3.2010   -2.9740   70.9740 N.3   259  ASN259     -0.1240
    226  CA         3.6270   -4.3090   70.6820 C.3   259  ASN259      0.1653
    227  C          2.4890   -5.2790   70.9550 C.2   259  ASN259      0.2266
    228  O          2.3010   -6.2040   70.2300 O.2   259  ASN259     -0.2867
    229  CB         4.8230   -4.6830   71.5510 C.3   259  ASN259      0.1155
    230  CG         6.0880   -3.8670   71.2560 C.2   259  ASN259      0.2627
    231  OD1        7.0230   -3.7840   72.1110 O.2   259  ASN259     -0.2716
    232  ND2        6.1350   -3.2780   70.1000 N.am  259  ASN259     -0.0877
    233  N         13.2230   -5.7340   78.3090 N.3   283  ARG283     -0.1245
    234  CA        14.5620   -5.3670   77.8690 C.3   283  ARG283      0.1563
    235  C         15.1360   -4.2680   78.7340 C.2   283  ARG283      0.2260
    236  O         14.4550   -3.2920   79.0840 O.2   283  ARG283     -0.2867
    237  CB        14.4830   -4.8970   76.4260 C.3   283  ARG283      0.0307
    238  CG        15.7320   -4.3270   75.8160 C.3   283  ARG283      0.0489
    239  CD        15.4300   -3.7030   74.4680 C.3   283  ARG283      0.2205
    240  NE        15.1900   -4.7440   73.4710 N.pl3 283  ARG283     -0.0865
    241  CZ        14.7390   -4.5230   72.2230 C.cat 283  ARG283      0.5346
    242  NH1       14.3890   -3.3000   71.8210 N.pl3 283  ARG283      0.1354
    243  NH2       14.6350   -5.5060   71.3900 N.pl3 283  ARG283      0.1354
    244  N         14.6760   -0.4050   77.9510 N.3   286  HIS286     -0.1241
    245  CA        13.7320   -0.4780   76.8200 C.3   286  HIS286      0.1621
    246  C         13.1620    0.9040   76.4620 C.2   286  HIS286      0.2264
    247  O         12.5850    1.5780   77.3060 O.2   286  HIS286     -0.2867
    248  CB        12.6240   -1.4270   77.2380 C.3   286  HIS286      0.0745
    249  CG        11.7730   -1.9510   76.1220 C.ar  286  HIS286      0.0817
    250  ND1       11.8140   -1.4370   74.8510 N.ar  286  HIS286     -0.2268
    251  CD2       10.8440   -2.9320   76.1080 C.ar  286  HIS286      0.1154
    252  CE1       10.9670   -2.1070   74.0830 C.ar  286  HIS286      0.1986
    253  NE2       10.3710   -3.0140   74.8070 N.ar  286  HIS286     -0.2212
    254  N         17.9200  -16.5250   72.9780 N.3   339  TYR339     -0.1241
    255  CA        17.0000  -15.7420   73.8040 C.3   339  TYR339      0.1605
    256  C         16.7730  -16.3550   75.1880 C.2   339  TYR339      0.2264
    257  O         16.6690  -15.6340   76.1710 O.2   339  TYR339     -0.2867
    258  CB        15.6500  -15.5320   73.1220 C.3   339  TYR339      0.0534
    259  CG        15.5710  -14.3830   72.1560 C.ar  339  TYR339     -0.0201
    260  CD1       15.1720  -14.5720   70.8420 C.ar  339  TYR339     -0.0009
    261  CD2       15.8800  -13.1210   72.5710 C.ar  339  TYR339     -0.0009
    262  CE1       15.0890  -13.5240   69.9470 C.ar  339  TYR339      0.0417
    263  CE2       15.8160  -12.0260   71.6820 C.ar  339  TYR339      0.0417
    264  CZ        15.3980  -12.2510   70.3930 C.ar  339  TYR339      0.1957
    265  OH        15.3060  -11.1560   69.5740 O.3   339  TYR339     -0.2866
@<TRIPOS>BOND
     1     4     3    2
     2     3     2    1
     3     2     1    1
     4     2     5    1
     5     7     5    1
     6     5     6    1
     7   103   102    2
     8     6     8    1
     9   105   106    1
    10   102   104   am
    11   102   101    1
    12    82    81    1
    13   106   109    1
    14   106   107    1
    15   101    98    1
    16    81    78    1
    17   109   110    1
    18   107   108    2
    19    98    99    1
    20    98    97    1
    21    99   100    2
    22    78    77    1
    23    78    79    1
    24   214   213    2
    25   110   111    1
    26   213   212    1
    27    97    91   am
    28    86    85    2
    29    88    87    1
    30   111   113   am
    31   111   112    2
    32    92    91    2
    33    79    83   am
    34    79    80    2
    35    83    84    1
    36    91    90    1
    37   212   215    1
    38   212   211    1
    39    85    84    1
    40    85    89   am
    41   215   216    1
    42    84    87    1
    43    41    42    1
    44    90    89    1
    45    90    93    1
    46    42    45    1
    47    42    43    1
    48   221   223   ar
    49   221   218   ar
    50    13    14    1
    51    13    10    1
    52   216   218   ar
    53   216   217   ar
    54   223   224   ar
    55   218   220   ar
    56    45    46    1
    57    45    47    1
    58    43    48   am
    59    43    44    2
    60    93    94    1
    61   131   130    1
    62    48    49    1
    63   128   127    1
    64   128   129    1
    65    76    75    1
    66     9    10    1
    67    10    11    1
    68   127   124    1
    69   217   219   ar
    70   130   129    1
    71    52    49    1
    72    52    53    1
    73   143   144    1
    74   114   115    1
    75   224   222   ar
    76    49    50    1
    77   220   219   ar
    78   220   222   ar
    79   122   120   ar
    80    94    95    2
    81    94    96   am
    82    53    55   ar
    83    53    54   ar
    84   123   124    1
    85   123   116   am
    86    11    12    2
    87    11    15   am
    88    75    73   ar
    89    75    74   ar
    90    73    71   ar
    91   126   125    2
    92   124   125    1
    93   119   120    1
    94   119   118    1
    95   120   121   ar
    96   156   157    2
    97   156   155    1
    98   125   132   am
    99   144   145    1
   100   144   147    1
   101   115   118    1
   102   115   116    1
   103   134   135    2
   104   134   133    1
   105   145   154   am
   106   145   146    2
   107    50    56   am
   108    50    51    2
   109    15    16    1
   110   154   155    1
   111   132   133    1
   112   203   202    2
   113   116   117    2
   114   202   201    1
   115    74    72   ar
   116    56    57    1
   117    71    70   ar
   118   155   158    1
   119   133   136    1
   120   158   159    1
   121   147   148    1
   122    19    16    1
   123    19    20    1
   124    16    17    1
   125   204   201    1
   126   204   205    1
   127   136   137    1
   128   139   137   ar
   129   139   141   ar
   130   201   200    1
   131    61    60    1
   132    61    62    1
   133    72    70   ar
   134    70    69    1
   135    57    60    1
   136    57    58    1
   137    20    22   ar
   138    20    21   ar
   139   137   138   ar
   140   159   160    1
   141    68    67    2
   142   141   142   ar
   143    63    62   ar
   144   148   149    1
   145    22    24   ar
   146    62    64   ar
   147    58    59    2
   148   205   206    1
   149    21    23   ar
   150    17    25   am
   151    17    18    2
   152   206   207    1
   153    24    23   ar
   154   138   140   ar
   155    67    66    1
   156   160   162   am
   157   160   161    2
   158    69    66    1
   159   142   140   ar
   160    25    26    1
   161   149   150    1
   162    66    65    1
   163    32    30   am
   164   265   264    1
   165   207   208    2
   166   262   264   ar
   167   262   260   ar
   168   232   230   am
   169   150   151    2
   170   228   227    2
   171    30    31    2
   172    30    29    1
   173   264   263   ar
   174    26    29    1
   175    26    27    1
   176   226   227    1
   177   226   225    1
   178   226   229    1
   179   260   259   ar
   180   208   209    1
   181   208   210    1
   182   230   229    1
   183   230   231    2
   184    33    27   am
   185    33    34    1
   186   243   241    1
   187   151   152    1
   188   151   153    1
   189    27    28    2
   190   263   261   ar
   191   242   241    1
   192    39    38   ar
   193   195   194    2
   194   259   261   ar
   195   259   258    1
   196   163   164    1
   197   241   240    2
   198    35    34    1
   199    35    36    2
   200   166   165    2
   201    37    34    1
   202    37    38    1
   203   194   193    1
   204    38    40   ar
   205   191   190    1
   206   254   255    1
   207   258   255    1
   208   168   167    1
   209   168   169    1
   210   165   164    1
   211   165   172   am
   212   178   177    1
   213   164   167    1
   214   240   239    1
   215   190   189   ar
   216   190   188   ar
   217   255   256    1
   218   196   193    1
   219   196   197    1
   220   189   187   ar
   221   193   192    1
   222   188   186   ar
   223   252   253   ar
   224   252   250   ar
   225   170   169    1
   226   170   171    1
   227   172   173    1
   228   173   176    1
   229   173   174    1
   230   239   238    1
   231   187   185   ar
   232   177   176    1
   233   177   179    1
   234   186   185   ar
   235   253   251   ar
   236   250   249   ar
   237   185   184    1
   238   256   257    2
   239   197   199   am
   240   197   198    2
   241   180   174   am
   242   180   181    1
   243   174   175    2
   244   238   237    1
   245   184   181    1
   246   251   249   ar
   247   249   248    1
   248   237   234    1
   249   181   182    1
   250   246   245    1
   251   246   247    2
   252   245   248    1
   253   245   244    1
   254   183   182    2
   255   234   233    1
   256   234   235    1
   257   235   236    2
