@<TRIPOS>MOLECULE
tmp/1oc5A01.pdb
 98 101 0 0 0
SMALL
GASTEIGER

@<TRIPOS>ATOM
      1  N         20.4700    6.9350   24.7940 N.3   147  THR147     -0.1203
      2  CA        21.6340    6.1100   24.4750 C.3   147  THR147      0.1994
      3  C         22.8810    6.3120   25.3160 C.2   147  THR147      0.2617
      4  O         23.7510    5.4850   25.2720 O.2   147  THR147     -0.2717
      5  CB        22.0380    6.2450   23.0040 C.3   147  THR147      0.1784
      6  OG1       22.5380    7.5880   22.7800 O.3   147  THR147     -0.2211
      7  CG2       20.8280    6.0680   22.0770 C.3   147  THR147      0.0376
      8  N         22.9650    7.4060   26.0670 N.am  148  ASN148     -0.1974
      9  CA        24.2080    7.8140   26.7210 C.3   148  ASN148      0.1688
     10  C         24.1310    7.8470   28.2400 C.2   148  ASN148      0.2292
     11  O         24.9470    8.5170   28.8990 O.2   148  ASN148     -0.2864
     12  CB        24.6900    9.1720   26.1720 C.3   148  ASN148      0.1181
     13  CG        25.0130    9.1080   24.6970 C.2   148  ASN148      0.2629
     14  OD1       25.5000    8.0850   24.2030 O.2   148  ASN148     -0.2716
     15  ND2       24.7980   10.2210   23.9860 N.am  148  ASN148     -0.0877
     16  N         20.4950    8.6580   12.2970 N.3   187  GLY187     -0.1210
     17  CA        21.7300    7.9570   12.6630 C.3   187  GLY187      0.1956
     18  C         22.0550    8.0320   14.1440 C.2   187  GLY187      0.2611
     19  O         23.1250    7.5750   14.5960 O.2   187  GLY187     -0.2717
     20  N         21.1590    8.5910   14.9380 N.am  188  TRP188     -0.1976
     21  CA        21.2650    8.5420   16.4000 C.3   188  TRP188      0.1640
     22  C         20.1110    7.6920   16.9540 C.2   188  TRP188      0.2290
     23  O         20.3080    6.5190   17.2850 O.2   188  TRP188     -0.2864
     24  CB        21.2750    9.9290   17.0130 C.3   188  TRP188      0.0576
     25  CG        21.5950    9.9410   18.5220 C.ar  188  TRP188      0.0006
     26  CD1       21.6860    8.8800   19.3700 C.ar  188  TRP188      0.0946
     27  CD2       21.7620   11.1100   19.3270 C.ar  188  TRP188      0.0152
     28  NE1       21.9490    9.3060   20.6460 N.ar  188  TRP188     -0.2442
     29  CE2       22.0040   10.6800   20.6530 C.ar  188  TRP188      0.0810
     30  CE3       21.7460   12.4810   19.0530 C.ar  188  TRP188      0.0012
     31  CZ2       22.2540   11.5650   21.6810 C.ar  188  TRP188      0.0191
     32  CZ3       22.0000   13.3540   20.0610 C.ar  188  TRP188      0.0001
     33  CH2       22.2440   12.9010   21.3730 C.ar  188  TRP188      0.0015
     34  N         18.2640    4.2690   14.7110 N.3   191  TRP191     -0.1228
     35  CA        18.7380    2.8780   14.6810 C.3   191  TRP191      0.1722
     36  C         17.6740    2.0050   15.3000 C.2   191  TRP191      0.2437
     37  O         17.0650    2.3610   16.3090 O.2   191  TRP191     -0.2733
     38  CB        20.0230    2.7100   15.4930 C.3   191  TRP191      0.0563
     39  CG        21.1700    3.2800   14.7660 C.ar  191  TRP191      0.0003
     40  CD1       21.6960    4.5230   14.9080 C.ar  191  TRP191      0.0946
     41  CD2       21.9370    2.6390   13.7420 C.ar  191  TRP191      0.0152
     42  NE1       22.7450    4.6990   14.0440 N.ar  191  TRP191     -0.2442
     43  CE2       22.9420    3.5460   13.3410 C.ar  191  TRP191      0.0810
     44  CE3       21.9310    1.3710   13.1800 C.ar  191  TRP191      0.0012
     45  CZ2       23.8950    3.2470   12.3700 C.ar  191  TRP191      0.0191
     46  CZ3       22.9090    1.0760   12.2060 C.ar  191  TRP191      0.0001
     47  CH2       23.8450    2.0080   11.8140 C.ar  191  TRP191      0.0015
     48  N         17.4340    0.8160   14.7470 N.am  192  PRO192     -0.2718
     49  CA        16.4040   -0.0460   15.3260 C.3   192  PRO192      0.1535
     50  C         16.4490   -0.2730   16.8190 C.2   192  PRO192      0.2598
     51  O         15.3880   -0.3650   17.4280 O.2   192  PRO192     -0.2715
     52  CB        16.6300   -1.3620   14.5780 C.3   192  PRO192      0.0310
     53  CG        16.9600   -0.8540   13.1730 C.3   192  PRO192      0.0237
     54  CD        18.0160    0.2530   13.5170 C.3   192  PRO192      0.0939
     55  N         17.6280   -0.3770   17.4150 N.am  193  ALA193     -0.1964
     56  CA        17.7150   -0.6510   18.8490 C.3   193  ALA193      0.1728
     57  C         17.3470    0.5440   19.6990 C.2   193  ALA193      0.2616
     58  O         17.0740    0.4040   20.8890 O.2   193  ALA193     -0.2715
     59  CB        19.1180   -1.1430   19.2440 C.3   193  ALA193      0.0334
     60  N         17.4060    1.7290   19.1010 N.am  194  ASN194     -0.1972
     61  CA        17.1690    2.9860   19.8020 C.3   194  ASN194      0.1688
     62  C         15.8060    3.5840   19.6530 C.2   194  ASN194      0.2292
     63  O         15.3950    4.3830   20.5070 O.2   194  ASN194     -0.2864
     64  CB        18.1860    4.0340   19.3440 C.3   194  ASN194      0.1181
     65  CG        19.6170    3.6640   19.6950 C.2   194  ASN194      0.2629
     66  OD1       19.8780    2.8040   20.5680 O.2   194  ASN194     -0.2716
     67  ND2       20.5850    4.3100   19.0170 N.am  194  ASN194     -0.0877
     68  N         25.3080    2.4710    6.7260 N.3   238  SER238     -0.1203
     69  CA        25.1020    1.0190    6.8410 C.3   238  SER238      0.2005
     70  C         25.4440    0.5370    8.2470 C.2   238  SER238      0.2460
     71  O         26.4400    0.9890    8.8110 O.2   238  SER238     -0.2732
     72  CB        25.9970    0.3100    5.8240 C.3   238  SER238      0.2103
     73  OG        25.9140   -1.0950    5.9730 O.3   238  SER238     -0.2182
     74  N         24.6970   -0.3970    8.8300 N.am  239  PRO239     -0.2728
     75  CA        23.5460   -1.0560    8.2370 C.3   239  PRO239      0.1401
     76  C         22.1940   -0.5880    8.7490 C.2   239  PRO239      0.2269
     77  O         21.2770   -1.3940    8.8890 O.2   239  PRO239     -0.2865
     78  CB        23.7600   -2.4980    8.7140 C.3   239  PRO239      0.0296
     79  CG        24.2950   -2.3350   10.0770 C.3   239  PRO239      0.0237
     80  CD        25.0260   -1.0390   10.1300 C.3   239  PRO239      0.0939
     81  N         29.0480    8.3670   10.2320 N.3   282  TRP282     -0.1227
     82  CA        27.7850    9.0990   10.4530 C.3   282  TRP282      0.1737
     83  C         27.8670   10.0460   11.6320 C.2   282  TRP282      0.2596
     84  O         27.3280   11.1390   11.6170 O.2   282  TRP282     -0.2718
     85  CB        26.6320    8.1220   10.6550 C.3   282  TRP282      0.0564
     86  CG        25.2910    8.6100   10.1780 C.ar  282  TRP282      0.0003
     87  CD1       24.9050    9.8990    9.8900 C.ar  282  TRP282      0.0946
     88  CD2       24.1410    7.8080    9.9940 C.ar  282  TRP282      0.0152
     89  NE1       23.6010    9.9210    9.4820 N.ar  282  TRP282     -0.2442
     90  CE2       23.0930    8.6560    9.5750 C.ar  282  TRP282      0.0810
     91  CE3       23.8710    6.4430   10.1580 C.ar  282  TRP282      0.0012
     92  CZ2       21.8170    8.1910    9.2800 C.ar  282  TRP282      0.0191
     93  CZ3       22.6100    5.9920    9.8590 C.ar  282  TRP282      0.0001
     94  CH2       21.6000    6.8580    9.4460 C.ar  282  TRP282      0.0015
     95  N         28.6000    9.6100   12.6510 N.am  283  GLY283     -0.1957
     96  CA        28.8140   10.3440   13.8710 C.3   283  GLY283      0.1869
     97  C         29.7810   11.5170   13.8710 C.2   283  GLY283      0.2309
     98  O         29.9850   12.1520   14.9230 O.2   283  GLY283     -0.2863
@<TRIPOS>BOND
     1    72    73    1
     2    72    69    1
     3    68    69    1
     4    69    70    1
     5    75    78    1
     6    75    76    1
     7    75    74    1
     8    70    71    2
     9    70    74   am
    10    78    79    1
    11    76    77    2
    12    74    80    1
    13    92    94   ar
    14    92    90   ar
    15    94    93   ar
    16    89    90   ar
    17    89    87   ar
    18    90    88   ar
    19    93    91   ar
    20    87    86   ar
    21    88    91   ar
    22    88    86   ar
    23    79    80    1
    24    86    85    1
    25    81    82    1
    26    82    85    1
    27    82    83    1
    28    84    83    2
    29    83    95   am
    30    47    46   ar
    31    47    45   ar
    32    46    44   ar
    33    16    17    1
    34    45    43   ar
    35    95    96    1
    36    17    18    1
    37    53    54    1
    38    53    52    1
    39    44    41   ar
    40    43    41   ar
    41    43    42   ar
    42    54    48    1
    43    41    39   ar
    44    96    97    1
    45    97    98    2
    46    42    40   ar
    47    18    19    2
    48    18    20   am
    49    52    49    1
    50    35    34    1
    51    35    36    1
    52    35    38    1
    53    48    36   am
    54    48    49    1
    55    39    40   ar
    56    39    38    1
    57    20    21    1
    58    36    37    2
    59    49    50    1
    60    21    22    1
    61    21    24    1
    62    50    55   am
    63    50    51    2
    64    22    23    2
    65    24    25    1
    66    55    56    1
    67    25    27   ar
    68    25    26   ar
    69    56    59    1
    70    56    57    1
    71    67    65   am
    72    30    27   ar
    73    30    32   ar
    74    60    57   am
    75    60    61    1
    76    27    29   ar
    77    64    65    1
    78    64    61    1
    79    26    28   ar
    80    62    61    1
    81    62    63    2
    82    65    66    2
    83    57    58    2
    84    32    33   ar
    85    28    29   ar
    86    29    31   ar
    87    33    31   ar
    88     7     5    1
    89     6     5    1
    90     5     2    1
    91    15    13   am
    92    14    13    2
    93     2     1    1
    94     2     3    1
    95    13    12    1
    96     4     3    2
    97     3     8   am
    98     8     9    1
    99    12     9    1
   100     9    10    1
   101    10    11    2
