@<TRIPOS>MOLECULE
tmp/1oc7A02.pdb
 139 136 0 0 0
SMALL
GASTEIGER

@<TRIPOS>ATOM
      1  N         18.4490   26.8480   23.8840 N.3    88  TYR88      -0.1241
      2  CA        19.6000   25.9600   23.9790 C.3    88  TYR88       0.1605
      3  C         20.5550   26.4040   25.0820 C.2    88  TYR88       0.2264
      4  O         21.6590   26.8730   24.8130 O.2    88  TYR88      -0.2867
      5  CB        20.3150   25.8840   22.6170 C.3    88  TYR88       0.0534
      6  CG        21.4700   24.8890   22.5210 C.ar   88  TYR88      -0.0201
      7  CD1       21.4030   23.6140   23.0290 C.ar   88  TYR88      -0.0009
      8  CD2       22.6080   25.2570   21.8330 C.ar   88  TYR88      -0.0009
      9  CE1       22.4430   22.7180   22.8870 C.ar   88  TYR88       0.0417
     10  CE2       23.6820   24.3640   21.6720 C.ar   88  TYR88       0.0417
     11  CZ        23.5650   23.0810   22.1840 C.ar   88  TYR88       0.1957
     12  OH        24.6430   22.2350   22.0130 O.3    88  TYR88      -0.2866
     13  N         24.8540   19.3090   26.9010 N.3    94  ASP94      -0.1239
     14  CA        25.6290   18.3920   26.0320 C.3    94  ASP94       0.1674
     15  C         26.3880   17.3950   26.8760 C.2    94  ASP94       0.2266
     16  O         27.6130   17.2310   26.7390 O.2    94  ASP94      -0.2867
     17  CB        26.5620   19.1580   25.0730 C.3    94  ASP94       0.1410
     18  CG        25.8380   20.2810   24.3780 C.2    94  ASP94       0.3668
     19  OD1       25.0070   20.0200   23.4640 O.co2  94  ASP94      -0.2456
     20  OD2       26.1040   21.4690   24.7400 O.co2  94  ASP94      -0.2456
     21  N         27.0580   14.2680   27.0490 N.3    96  ALA96      -0.1231
     22  CA        27.8970   13.2220   26.5110 C.3    96  ALA96       0.1694
     23  C         28.9920   13.7500   25.5820 C.2    96  ALA96       0.2592
     24  O         29.7810   12.9260   25.0400 O.2    96  ALA96      -0.2718
     25  CB        27.0600   12.1570   25.7810 C.3    96  ALA96       0.0304
     26  N         29.0730   15.0360   25.3960 N.am   97  ALA97      -0.1966
     27  CA        30.0540   15.6210   24.4620 C.3    97  ALA97       0.1728
     28  C         31.4740   15.5300   25.0210 C.2    97  ALA97       0.2616
     29  O         31.6850   15.5960   26.2480 O.2    97  ALA97      -0.2715
     30  CB        29.7180   17.0590   24.1270 C.3    97  ALA97       0.0334
     31  N         32.4240   15.4760   24.1290 N.am   98  ALA98      -0.1963
     32  CA        33.8220   15.5220   24.5180 C.3    98  ALA98       0.1728
     33  C         34.1590   16.8230   25.1490 C.2    98  ALA98       0.2616
     34  O         35.0040   16.9180   26.0600 O.2    98  ALA98      -0.2715
     35  CB        34.6970   15.2910   23.2890 C.3    98  ALA98       0.0334
     36  N         33.5260   17.9090   24.7090 N.am   99  ALA99      -0.1977
     37  CA        33.6930   19.2590   25.2640 C.3    99  ALA99       0.1597
     38  C         32.3360   19.9340   25.0830 C.2    99  ALA99       0.2287
     39  O         31.6620   19.7500   24.0600 O.2    99  ALA99      -0.2864
     40  CB        34.7690   20.0250   24.5210 C.3    99  ALA99       0.0319
     41  N         18.3660   21.2290   21.5330 N.3   139  PRO139     -0.2102
     42  CA        19.1800   20.2290   20.8190 C.3   139  PRO139      0.1504
     43  C         20.0980   19.4830   21.7890 C.2   139  PRO139      0.2575
     44  O         20.6040   20.0380   22.7620 O.2   139  PRO139     -0.2718
     45  CB        19.9500   21.1130   19.7980 C.3   139  PRO139      0.0282
     46  CG        19.0230   22.2550   19.5550 C.3   139  PRO139      0.0208
     47  CD        18.4880   22.5660   20.9160 C.3   139  PRO139      0.0893
     48  N         20.3680   18.2380   21.4440 N.am  140  ASP140     -0.1974
     49  CA        21.3980   17.4540   22.1440 C.3   140  ASP140      0.1708
     50  C         21.1170   17.3710   23.6510 C.2   140  ASP140      0.2293
     51  O         22.0710   17.4720   24.4460 O.2   140  ASP140     -0.2864
     52  CB        22.7940   18.0170   21.9050 C.3   140  ASP140      0.1436
     53  CG        23.8610   17.0710   22.3880 C.2   140  ASP140      0.3671
     54  OD1       23.6950   15.8420   22.3400 O.co2 140  ASP140     -0.2456
     55  OD2       24.9690   17.5700   22.8250 O.co2 140  ASP140     -0.2456
     56  N         18.5230   12.4280   15.2960 N.3   185  HIS185     -0.1241
     57  CA        18.4850   12.2200   13.8500 C.3   185  HIS185      0.1621
     58  C         18.4580   10.7250   13.5620 C.2   185  HIS185      0.2264
     59  O         18.6400    9.9160   14.4930 O.2   185  HIS185     -0.2867
     60  CB        19.6430   12.9730   13.1630 C.3   185  HIS185      0.0745
     61  CG        21.0040   12.4100   13.4310 C.ar  185  HIS185      0.0817
     62  ND1       21.5990   11.4820   12.5990 N.ar  185  HIS185     -0.2268
     63  CD2       21.8840   12.7210   14.4140 C.ar  185  HIS185      0.1154
     64  CE1       22.7950   11.2480   13.0930 C.ar  185  HIS185      0.1986
     65  NE2       23.0230   11.9890   14.1880 N.ar  185  HIS185     -0.2212
     66  N         21.1600    8.5430   15.0420 N.3   188  TRP188     -0.1241
     67  CA        21.2480    8.4780   16.4940 C.3   188  TRP188      0.1605
     68  C         20.0600    7.6780   17.0000 C.2   188  TRP188      0.2264
     69  O         20.1920    6.4950   17.3160 O.2   188  TRP188     -0.2867
     70  CB        21.3290    9.8800   17.0940 C.3   188  TRP188      0.0550
     71  CG        21.5400    9.8870   18.5780 C.ar  188  TRP188      0.0003
     72  CD1       21.6730    8.8250   19.4380 C.ar  188  TRP188      0.0946
     73  CD2       21.6980   11.0470   19.3890 C.ar  188  TRP188      0.0152
     74  NE1       21.8920    9.2510   20.7180 N.ar  188  TRP188     -0.2442
     75  CE2       21.9270   10.6090   20.7180 C.ar  188  TRP188      0.0810
     76  CE3       21.6550   12.4260   19.1430 C.ar  188  TRP188      0.0012
     77  CZ2       22.1790   11.5080   21.7620 C.ar  188  TRP188      0.0191
     78  CZ3       21.9000   13.2930   20.1830 C.ar  188  TRP188      0.0001
     79  CH2       22.1480   12.8240   21.4730 C.ar  188  TRP188      0.0015
     80  N         18.7950   18.3630   13.4800 N.3   222  VAL222     -0.1231
     81  CA        19.3270   19.6740   13.8730 C.3   222  VAL222      0.1692
     82  C         20.8520   19.6170   13.8850 C.2   222  VAL222      0.2592
     83  O         21.4380   18.7570   14.5820 O.2   222  VAL222     -0.2718
     84  CB        18.7890   20.1130   15.2180 C.3   222  VAL222      0.0266
     85  CG1       19.4830   21.4090   15.6660 C.3   222  VAL222      0.0020
     86  CG2       17.2670   20.2820   15.1750 C.3   222  VAL222      0.0020
     87  N         21.4930   20.5070   13.1400 N.am  223  ALA223     -0.1966
     88  CA        22.9470   20.6200   13.0680 C.3   223  ALA223      0.1728
     89  C         23.6110   19.4220   12.4320 C.2   223  ALA223      0.2616
     90  O         24.8400   19.3420   12.4200 O.2   223  ALA223     -0.2715
     91  CB        23.5720   20.9510   14.4240 C.3   223  ALA223      0.0334
     92  N         22.8500   18.5130   11.8450 N.am  224  ASN224     -0.1972
     93  CA        23.3970   17.3720   11.1550 C.3   224  ASN224      0.1688
     94  C         23.1470   17.5170    9.6590 C.2   224  ASN224      0.2292
     95  O         22.6950   18.5690    9.1850 O.2   224  ASN224     -0.2864
     96  CB        22.8920   16.0860   11.7940 C.3   224  ASN224      0.1181
     97  CG        23.7370   15.6880   12.9230 C.2   224  ASN224      0.2629
     98  OD1       24.6370   14.8080   12.7070 O.2   224  ASN224     -0.2716
     99  ND2       23.5810   16.3430   14.0680 N.am  224  ASN224     -0.0877
    100  N         30.1060   14.9130   13.2370 N.3   285  TRP285     -0.1241
    101  CA        29.2010   16.0530   13.1380 C.3   285  TRP285      0.1605
    102  C         29.8850   17.3600   12.9120 C.2   285  TRP285      0.2264
    103  O         29.1880   18.3450   12.5870 O.2   285  TRP285     -0.2867
    104  CB        28.2960   16.1430   14.3840 C.3   285  TRP285      0.0550
    105  CG        29.0290   16.1580   15.6910 C.ar  285  TRP285      0.0003
    106  CD1       29.2360   15.0820   16.5010 C.ar  285  TRP285      0.0946
    107  CD2       29.7230   17.2340   16.3130 C.ar  285  TRP285      0.0152
    108  NE1       30.0110   15.4210   17.5850 N.ar  285  TRP285     -0.2442
    109  CE2       30.3240   16.7370   17.4820 C.ar  285  TRP285      0.0810
    110  CE3       29.8830   18.6020   16.0160 C.ar  285  TRP285      0.0012
    111  CZ2       31.0880   17.5480   18.3190 C.ar  285  TRP285      0.0191
    112  CZ3       30.6560   19.3960   16.8510 C.ar  285  TRP285      0.0001
    113  CH2       31.2450   18.8310   17.9990 C.ar  285  TRP285      0.0015
    114  N         31.0600   24.9040   13.9610 N.3   319  ASN319     -0.1240
    115  CA        30.6370   23.9210   14.9560 C.3   319  ASN319      0.1653
    116  C         31.6440   23.7070   16.0980 C.2   319  ASN319      0.2266
    117  O         31.3560   23.0430   17.0780 O.2   319  ASN319     -0.2867
    118  CB        30.4550   22.5930   14.2420 C.3   319  ASN319      0.1155
    119  CG        29.3620   22.5850   13.2350 C.2   319  ASN319      0.2627
    120  OD1       29.4300   21.8460   12.2490 O.2   319  ASN319     -0.2716
    121  ND2       28.3210   23.3420   13.5070 N.am  319  ASN319     -0.0877
    122  N         36.9910   20.0550   20.8750 N.3   330  ASP330     -0.1239
    123  CA        36.2830   18.7960   20.7190 C.3   330  ASP330      0.1674
    124  C         36.9720   18.0120   19.6060 C.2   330  ASP330      0.2266
    125  O         37.0430   18.4890   18.4690 O.2   330  ASP330     -0.2867
    126  CB        34.8290   19.0860   20.3680 C.3   330  ASP330      0.1410
    127  CG        33.9690   17.8380   20.4260 C.2   330  ASP330      0.3668
    128  OD1       34.3510   16.8370   19.7990 O.co2 330  ASP330     -0.2456
    129  OD2       32.9030   17.8600   21.0840 O.co2 330  ASP330     -0.2456
    130  N         36.1710   15.8430   17.6760 N.3   332  HIS332     -0.1241
    131  CA        35.4150   15.6490   16.4320 C.3   332  HIS332      0.1621
    132  C         35.8200   16.6730   15.3720 C.2   332  HIS332      0.2264
    133  O         35.7090   16.4290   14.1690 O.2   332  HIS332     -0.2867
    134  CB        33.9160   15.7060   16.6850 C.3   332  HIS332      0.0745
    135  CG        33.4330   14.5340   17.4590 C.ar  332  HIS332      0.0817
    136  ND1       33.3280   14.5330   18.8340 N.ar  332  HIS332     -0.2268
    137  CD2       33.0340   13.2980   17.0440 C.ar  332  HIS332      0.1154
    138  CE1       32.8790   13.3330   19.2190 C.ar  332  HIS332      0.1986
    139  NE2       32.6890   12.5690   18.1590 N.ar  332  HIS332     -0.2212
@<TRIPOS>BOND
     1    95    94    2
     2    94    93    1
     3    93    96    1
     4    93    92    1
     5    96    97    1
     6    92    89   am
     7   120   119    2
     8    90    89    2
     9    89    88    1
    10   103   102    2
    11    62    64   ar
    12    62    61   ar
    13    98    97    2
    14   102   101    1
    15    97    99   am
    16    88    87    1
    17    88    91    1
    18    64    65   ar
    19   101   100    1
    20   101   104    1
    21    87    82   am
    22    60    61    1
    23    60    57    1
    24   119   121   am
    25   119   118    1
    26    61    63   ar
    27    80    81    1
    28    58    57    1
    29    58    59    2
    30    57    56    1
    31    81    82    1
    32    81    84    1
    33    82    83    2
    34   114   115    1
    35   133   132    2
    36    65    63   ar
    37   118   115    1
    38   104   105    1
    39   115   116    1
    40    66    67    1
    41    86    84    1
    42    84    85    1
    43   132   131    1
    44   105   107   ar
    45   105   106   ar
    46   110   107   ar
    47   110   112   ar
    48   116   117    2
    49   107   109   ar
    50   131   134    1
    51   131   130    1
    52    67    68    1
    53    67    70    1
    54   106   108   ar
    55   134   135    1
    56   112   113   ar
    57    68    69    2
    58   137   135   ar
    59   137   139   ar
    60    70    71    1
    61   135   136   ar
    62   109   108   ar
    63   109   111   ar
    64   113   111   ar
    65   139   138   ar
    66   125   124    2
    67    71    73   ar
    68    71    72   ar
    69   136   138   ar
    70    76    73   ar
    71    76    78   ar
    72    73    75   ar
    73    72    74   ar
    74    46    45    1
    75    46    47    1
    76   124   123    1
    77    45    42    1
    78   128   127   ar
    79    78    79   ar
    80   126   127    1
    81   126   123    1
    82   127   129   ar
    83    75    74   ar
    84    75    77   ar
    85   123   122    1
    86    42    41    1
    87    42    43    1
    88    47    41    1
    89    48    43   am
    90    48    49    1
    91    79    77   ar
    92    10     8   ar
    93    10    11   ar
    94    43    44    2
    95     8     6   ar
    96    52    49    1
    97    52    53    1
    98    12    11    1
    99    49    50    1
   100    11     9   ar
   101    54    53   ar
   102    53    55   ar
   103     6     5    1
   104     6     7   ar
   105     5     2    1
   106     9     7   ar
   107    35    32    1
   108    19    18   ar
   109    50    51    2
   110     1     2    1
   111     2     3    1
   112    39    38    2
   113    30    27    1
   114    31    32    1
   115    31    28   am
   116    18    20   ar
   117    18    17    1
   118    27    28    1
   119    27    26    1
   120    32    33    1
   121    40    37    1
   122    36    33   am
   123    36    37    1
   124     4     3    2
   125    28    29    2
   126    24    23    2
   127    17    14    1
   128    38    37    1
   129    33    34    2
   130    26    23   am
   131    23    22    1
   132    25    22    1
   133    14    15    1
   134    14    13    1
   135    22    21    1
   136    16    15    2
