@<TRIPOS>MOLECULE
tmp/1oc7A03.pdb
 104 102 0 0 0
SMALL
GASTEIGER

@<TRIPOS>ATOM
      1  N         27.0580   14.2680   27.0490 N.3    96  ALA96      -0.1245
      2  CA        27.8970   13.2220   26.5110 C.3    96  ALA96       0.1562
      3  C         28.9920   13.7500   25.5820 C.2    96  ALA96       0.2260
      4  O         29.7810   12.9260   25.0400 O.2    96  ALA96      -0.2867
      5  CB        27.0600   12.1570   25.7810 C.3    96  ALA96       0.0290
      6  N         20.3680   18.2380   21.4440 N.3   140  ASP140     -0.1239
      7  CA        21.3980   17.4540   22.1440 C.3   140  ASP140      0.1674
      8  C         21.1170   17.3710   23.6510 C.2   140  ASP140      0.2266
      9  O         22.0710   17.4720   24.4460 O.2   140  ASP140     -0.2867
     10  CB        22.7940   18.0170   21.9050 C.3   140  ASP140      0.1410
     11  CG        23.8610   17.0710   22.3880 C.2   140  ASP140      0.3668
     12  OD1       23.6950   15.8420   22.3400 O.co2 140  ASP140     -0.2456
     13  OD2       24.9690   17.5700   22.8250 O.co2 140  ASP140     -0.2456
     14  N         20.1550   12.1610   24.7670 N.3   144  ASN144     -0.1240
     15  CA        21.1760   11.5220   25.5870 C.3   144  ASN144      0.1653
     16  C         20.5950   10.5750   26.6400 C.2   144  ASN144      0.2266
     17  O         21.2930    9.6400   27.0660 O.2   144  ASN144     -0.2867
     18  CB        22.0260   12.5820   26.3090 C.3   144  ASN144      0.1155
     19  CG        22.8520   13.3820   25.3490 C.2   144  ASN144      0.2627
     20  OD1       23.8240   12.8580   24.7960 O.2   144  ASN144     -0.2716
     21  ND2       22.4790   14.6190   25.0960 N.am  144  ASN144     -0.0877
     22  N         20.3990    6.9070   24.9170 N.3   147  THR147     -0.1203
     23  CA        21.5350    6.0820   24.6120 C.3   147  THR147      0.1994
     24  C         22.7610    6.3330   25.4650 C.2   147  THR147      0.2617
     25  O         23.6630    5.5000   25.4200 O.2   147  THR147     -0.2717
     26  CB        21.9770    6.2340   23.1390 C.3   147  THR147      0.1784
     27  OG1       22.4860    7.5600   22.9280 O.3   147  THR147     -0.2211
     28  CG2       20.8660    5.9950   22.1380 C.3   147  THR147      0.0376
     29  N         22.8410    7.4020   26.2300 N.am  148  ASN148     -0.1974
     30  CA        24.0650    7.8070   26.8770 C.3   148  ASN148      0.1688
     31  C         23.9820    7.8310   28.4060 C.2   148  ASN148      0.2292
     32  O         24.7790    8.5030   29.0580 O.2   148  ASN148     -0.2864
     33  CB        24.5540    9.1410   26.3530 C.3   148  ASN148      0.1181
     34  CG        24.8830    9.1060   24.8590 C.2   148  ASN148      0.2629
     35  OD1       25.2120    8.0270   24.3040 O.2   148  ASN148     -0.2716
     36  ND2       24.7780   10.2220   24.1510 N.am  148  ASN148     -0.0877
     37  N         18.5230   12.4280   15.2960 N.3   185  HIS185     -0.1241
     38  CA        18.4850   12.2200   13.8500 C.3   185  HIS185      0.1621
     39  C         18.4580   10.7250   13.5620 C.2   185  HIS185      0.2264
     40  O         18.6400    9.9160   14.4930 O.2   185  HIS185     -0.2867
     41  CB        19.6430   12.9730   13.1630 C.3   185  HIS185      0.0745
     42  CG        21.0040   12.4100   13.4310 C.ar  185  HIS185      0.0817
     43  ND1       21.5990   11.4820   12.5990 N.ar  185  HIS185     -0.2268
     44  CD2       21.8840   12.7210   14.4140 C.ar  185  HIS185      0.1154
     45  CE1       22.7950   11.2480   13.0930 C.ar  185  HIS185      0.1986
     46  NE2       23.0230   11.9890   14.1880 N.ar  185  HIS185     -0.2212
     47  N         20.5370    8.7030   12.3750 N.3   187  GLY187     -0.1210
     48  CA        21.7180    7.9820   12.7460 C.3   187  GLY187      0.1956
     49  C         22.0600    8.0150   14.1950 C.2   187  GLY187      0.2611
     50  O         23.1220    7.5010   14.6120 O.2   187  GLY187     -0.2717
     51  N         21.1600    8.5430   15.0420 N.am  188  TRP188     -0.1976
     52  CA        21.2480    8.4780   16.4940 C.3   188  TRP188      0.1640
     53  C         20.0600    7.6780   17.0000 C.2   188  TRP188      0.2290
     54  O         20.1920    6.4950   17.3160 O.2   188  TRP188     -0.2864
     55  CB        21.3290    9.8800   17.0940 C.3   188  TRP188      0.0576
     56  CG        21.5400    9.8870   18.5780 C.ar  188  TRP188      0.0006
     57  CD1       21.6730    8.8250   19.4380 C.ar  188  TRP188      0.0946
     58  CD2       21.6980   11.0470   19.3890 C.ar  188  TRP188      0.0152
     59  NE1       21.8920    9.2510   20.7180 N.ar  188  TRP188     -0.2442
     60  CE2       21.9270   10.6090   20.7180 C.ar  188  TRP188      0.0810
     61  CE3       21.6550   12.4260   19.1430 C.ar  188  TRP188      0.0012
     62  CZ2       22.1790   11.5080   21.7620 C.ar  188  TRP188      0.0191
     63  CZ3       21.9000   13.2930   20.1830 C.ar  188  TRP188      0.0001
     64  CH2       22.1480   12.8240   21.4730 C.ar  188  TRP188      0.0015
     65  N         22.8500   18.5130   11.8450 N.3   224  ASN224     -0.1240
     66  CA        23.3970   17.3720   11.1550 C.3   224  ASN224      0.1653
     67  C         23.1470   17.5170    9.6590 C.2   224  ASN224      0.2266
     68  O         22.6950   18.5690    9.1850 O.2   224  ASN224     -0.2867
     69  CB        22.8920   16.0860   11.7940 C.3   224  ASN224      0.1155
     70  CG        23.7370   15.6880   12.9230 C.2   224  ASN224      0.2627
     71  OD1       24.6370   14.8080   12.7070 O.2   224  ASN224     -0.2716
     72  ND2       23.5810   16.3430   14.0680 N.am  224  ASN224     -0.0877
     73  N         29.0550    8.3930   10.3080 N.3   282  TRP282     -0.1227
     74  CA        27.8170    9.1230   10.5240 C.3   282  TRP282      0.1737
     75  C         27.8880   10.0480   11.7150 C.2   282  TRP282      0.2596
     76  O         27.2700   11.1220   11.7260 O.2   282  TRP282     -0.2718
     77  CB        26.6590    8.1400   10.6530 C.3   282  TRP282      0.0564
     78  CG        25.3160    8.6540   10.2590 C.ar  282  TRP282      0.0003
     79  CD1       24.9400    9.9090    9.9090 C.ar  282  TRP282      0.0946
     80  CD2       24.1660    7.8370   10.0970 C.ar  282  TRP282      0.0152
     81  NE1       23.6150    9.9300    9.5370 N.ar  282  TRP282     -0.2442
     82  CE2       23.1130    8.6550    9.6210 C.ar  282  TRP282      0.0810
     83  CE3       23.9080    6.4640   10.2610 C.ar  282  TRP282      0.0012
     84  CZ2       21.8430    8.1430    9.3490 C.ar  282  TRP282      0.0191
     85  CZ3       22.6790    5.9680    9.9890 C.ar  282  TRP282      0.0001
     86  CH2       21.6390    6.8020    9.5410 C.ar  282  TRP282      0.0015
     87  N         28.6380    9.6450   12.7400 N.am  283  GLY283     -0.1957
     88  CA        28.7890   10.4080   13.9420 C.3   283  GLY283      0.1869
     89  C         29.7650   11.5560   13.8630 C.2   283  GLY283      0.2309
     90  O         29.9960   12.2260   14.8920 O.2   283  GLY283     -0.2863
     91  N         30.1060   14.9130   13.2370 N.3   285  TRP285     -0.1241
     92  CA        29.2010   16.0530   13.1380 C.3   285  TRP285      0.1605
     93  C         29.8850   17.3600   12.9120 C.2   285  TRP285      0.2264
     94  O         29.1880   18.3450   12.5870 O.2   285  TRP285     -0.2867
     95  CB        28.2960   16.1430   14.3840 C.3   285  TRP285      0.0550
     96  CG        29.0290   16.1580   15.6910 C.ar  285  TRP285      0.0003
     97  CD1       29.2360   15.0820   16.5010 C.ar  285  TRP285      0.0946
     98  CD2       29.7230   17.2340   16.3130 C.ar  285  TRP285      0.0152
     99  NE1       30.0110   15.4210   17.5850 N.ar  285  TRP285     -0.2442
    100  CE2       30.3240   16.7370   17.4820 C.ar  285  TRP285      0.0810
    101  CE3       29.8830   18.6020   16.0160 C.ar  285  TRP285      0.0012
    102  CZ2       31.0880   17.5480   18.3190 C.ar  285  TRP285      0.0191
    103  CZ3       30.6560   19.3960   16.8510 C.ar  285  TRP285      0.0001
    104  CH2       31.2450   18.8310   17.9990 C.ar  285  TRP285      0.0015
@<TRIPOS>BOND
     1    68    67    2
     2    84    86   ar
     3    84    82   ar
     4    81    82   ar
     5    81    79   ar
     6    86    85   ar
     7    82    80   ar
     8    67    66    1
     9    79    78   ar
    10    85    83   ar
    11    80    78   ar
    12    80    83   ar
    13    78    77    1
    14    73    74    1
    15    74    77    1
    16    74    75    1
    17    66    69    1
    18    66    65    1
    19    75    76    2
    20    75    87   am
    21    69    70    1
    22    47    48    1
    23    94    93    2
    24    43    45   ar
    25    43    42   ar
    26    71    70    2
    27    87    88    1
    28    48    49    1
    29    93    92    1
    30    70    72   am
    31    45    46   ar
    32    92    91    1
    33    92    95    1
    34    41    42    1
    35    41    38    1
    36    42    44   ar
    37    39    38    1
    38    39    40    2
    39    38    37    1
    40    89    88    1
    41    89    90    2
    42    46    44   ar
    43    49    50    2
    44    49    51   am
    45    95    96    1
    46    51    52    1
    47    96    98   ar
    48    96    97   ar
    49   101    98   ar
    50   101   103   ar
    51    98   100   ar
    52    52    53    1
    53    52    55    1
    54    97    99   ar
    55   103   104   ar
    56    53    54    2
    57    55    56    1
    58   100    99   ar
    59   100   102   ar
    60   104   102   ar
    61    56    58   ar
    62    56    57   ar
    63    61    58   ar
    64    61    63   ar
    65    58    60   ar
    66    57    59   ar
    67    63    64   ar
    68    59    60   ar
    69    60    62   ar
    70     6     7    1
    71    64    62   ar
    72    10     7    1
    73    10    11    1
    74    28    26    1
    75     7     8    1
    76    12    11   ar
    77    11    13   ar
    78    27    26    1
    79    26    23    1
    80     8     9    2
    81    36    34   am
    82    35    34    2
    83    23    22    1
    84    23    24    1
    85    14    15    1
    86    20    19    2
    87    34    33    1
    88     4     3    2
    89    21    19   am
    90    19    18    1
    91    25    24    2
    92    24    29   am
    93     3     2    1
    94    15    18    1
    95    15    16    1
    96     5     2    1
    97    29    30    1
    98    33    30    1
    99     2     1    1
   100    16    17    2
   101    30    31    1
   102    31    32    2
