@<TRIPOS>MOLECULE
tmp/1oc7A01.pdb
 130 123 0 0 0
SMALL
GASTEIGER

@<TRIPOS>ATOM
      1  N         19.4910   31.1970   17.3280 N.3    51  TRP51      -0.1241
      2  CA        19.7640   30.3960   18.5250 C.3    51  TRP51       0.1605
      3  C         19.9870   31.2230   19.7670 C.2    51  TRP51       0.2264
      4  O         20.8630   32.0960   19.7920 O.2    51  TRP51      -0.2867
      5  CB        20.9960   29.5130   18.3020 C.3    51  TRP51       0.0550
      6  CG        20.8020   28.4260   17.2640 C.ar   51  TRP51       0.0003
      7  CD1       20.3950   28.5590   15.9550 C.ar   51  TRP51       0.0946
      8  CD2       21.0680   27.0420   17.4510 C.ar   51  TRP51       0.0152
      9  NE1       20.3820   27.3450   15.3320 N.ar   51  TRP51      -0.2442
     10  CE2       20.7840   26.3830   16.2120 C.ar   51  TRP51       0.0810
     11  CE3       21.5060   26.2770   18.5370 C.ar   51  TRP51       0.0012
     12  CZ2       20.9520   25.0210   16.0560 C.ar   51  TRP51       0.0191
     13  CZ3       21.6760   24.9220   18.3700 C.ar   51  TRP51       0.0001
     14  CH2       21.3880   24.2900   17.1380 C.ar   51  TRP51       0.0015
     15  N         21.6450   30.4250   22.4390 N.3    53  ASP53      -0.1239
     16  CA        22.5940   29.4550   22.9430 C.3    53  ASP53       0.1674
     17  C         23.4720   29.9750   24.0850 C.2    53  ASP53       0.2266
     18  O         24.2570   29.2280   24.6480 O.2    53  ASP53      -0.2867
     19  CB        23.4690   28.9420   21.8290 C.3    53  ASP53       0.1410
     20  CG        24.3370   29.9880   21.2530 C.2    53  ASP53       0.3668
     21  OD1       24.0110   31.1490   21.0820 O.co2  53  ASP53      -0.2456
     22  OD2       25.5080   29.6740   20.9550 O.co2  53  ASP53      -0.2456
     23  N         18.4490   26.8480   23.8840 N.3    88  TYR88      -0.1241
     24  CA        19.6000   25.9600   23.9790 C.3    88  TYR88       0.1605
     25  C         20.5550   26.4040   25.0820 C.2    88  TYR88       0.2264
     26  O         21.6590   26.8730   24.8130 O.2    88  TYR88      -0.2867
     27  CB        20.3150   25.8840   22.6170 C.3    88  TYR88       0.0534
     28  CG        21.4700   24.8890   22.5210 C.ar   88  TYR88      -0.0201
     29  CD1       21.4030   23.6140   23.0290 C.ar   88  TYR88      -0.0009
     30  CD2       22.6080   25.2570   21.8330 C.ar   88  TYR88      -0.0009
     31  CE1       22.4430   22.7180   22.8870 C.ar   88  TYR88       0.0417
     32  CE2       23.6820   24.3640   21.6720 C.ar   88  TYR88       0.0417
     33  CZ        23.5650   23.0810   22.1840 C.ar   88  TYR88       0.1957
     34  OH        24.6430   22.2350   22.0130 O.3    88  TYR88      -0.2866
     35  N         24.9750   21.1950   29.9270 N.3    93  ARG93      -0.1231
     36  CA        24.5460   21.0420   28.5270 C.3    93  ARG93       0.1694
     37  C         25.4310   20.0500   27.8370 C.2    93  ARG93       0.2592
     38  O         26.6480   19.9570   28.0960 O.2    93  ARG93      -0.2718
     39  CB        24.6380   22.3810   27.7960 C.3    93  ARG93       0.0321
     40  CG        23.5550   22.5730   26.7400 C.3    93  ARG93       0.0489
     41  CD        23.6090   23.9170   26.0270 C.3    93  ARG93       0.2205
     42  NE        24.7960   24.0150   25.1840 N.pl3  93  ARG93      -0.0865
     43  CZ        25.1970   25.1380   24.6000 C.cat  93  ARG93       0.5346
     44  NH1       24.5170   26.2470   24.7740 N.pl3  93  ARG93       0.1354
     45  NH2       26.2980   25.1290   23.8610 N.pl3  93  ARG93       0.1354
     46  N         24.8540   19.3090   26.9010 N.am   94  ASP94      -0.1974
     47  CA        25.6290   18.3920   26.0320 C.3    94  ASP94       0.1709
     48  C         26.3880   17.3950   26.8760 C.2    94  ASP94       0.2293
     49  O         27.6130   17.2310   26.7390 O.2    94  ASP94      -0.2864
     50  CB        26.5620   19.1580   25.0730 C.3    94  ASP94       0.1436
     51  CG        25.8380   20.2810   24.3780 C.2    94  ASP94       0.3671
     52  OD1       25.0070   20.0200   23.4640 O.co2  94  ASP94      -0.2456
     53  OD2       26.1040   21.4690   24.7400 O.co2  94  ASP94      -0.2456
     54  N         33.5260   17.9090   24.7090 N.3    99  ALA99      -0.1245
     55  CA        33.6930   19.2590   25.2640 C.3    99  ALA99       0.1562
     56  C         32.3360   19.9340   25.0830 C.2    99  ALA99       0.2260
     57  O         31.6620   19.7500   24.0600 O.2    99  ALA99      -0.2867
     58  CB        34.7690   20.0250   24.5210 C.3    99  ALA99       0.0290
     59  N         30.2540   23.7060   25.1680 N.3   101  ASN101     -0.1240
     60  CA        30.2660   25.1510   25.2180 C.3   101  ASN101      0.1653
     61  C         29.1660   25.7320   26.0820 C.2   101  ASN101      0.2266
     62  O         29.0370   26.9350   26.1870 O.2   101  ASN101     -0.2867
     63  CB        30.1400   25.6740   23.7800 C.3   101  ASN101      0.1155
     64  CG        31.3060   25.1620   22.9190 C.2   101  ASN101      0.2627
     65  OD1       31.1110   24.4860   21.8870 O.2   101  ASN101     -0.2716
     66  ND2       32.4890   25.3950   23.3990 N.am  101  ASN101     -0.0877
     67  N         18.3660   21.2290   21.5330 N.3   139  PRO139     -0.2102
     68  CA        19.1800   20.2290   20.8190 C.3   139  PRO139      0.1504
     69  C         20.0980   19.4830   21.7890 C.2   139  PRO139      0.2575
     70  O         20.6040   20.0380   22.7620 O.2   139  PRO139     -0.2718
     71  CB        19.9500   21.1130   19.7980 C.3   139  PRO139      0.0282
     72  CG        19.0230   22.2550   19.5550 C.3   139  PRO139      0.0208
     73  CD        18.4880   22.5660   20.9160 C.3   139  PRO139      0.0893
     74  N         20.3680   18.2380   21.4440 N.am  140  ASP140     -0.1974
     75  CA        21.3980   17.4540   22.1440 C.3   140  ASP140      0.1708
     76  C         21.1170   17.3710   23.6510 C.2   140  ASP140      0.2293
     77  O         22.0710   17.4720   24.4460 O.2   140  ASP140     -0.2864
     78  CB        22.7940   18.0170   21.9050 C.3   140  ASP140      0.1436
     79  CG        23.8610   17.0710   22.3880 C.2   140  ASP140      0.3671
     80  OD1       23.6950   15.8420   22.3400 O.co2 140  ASP140     -0.2456
     81  OD2       24.9690   17.5700   22.8250 O.co2 140  ASP140     -0.2456
     82  N         21.4930   20.5070   13.1400 N.3   223  ALA223     -0.1245
     83  CA        22.9470   20.6200   13.0680 C.3   223  ALA223      0.1562
     84  C         23.6110   19.4220   12.4320 C.2   223  ALA223      0.2260
     85  O         24.8400   19.3420   12.4200 O.2   223  ALA223     -0.2867
     86  CB        23.5720   20.9510   14.4240 C.3   223  ALA223      0.0290
     87  N         30.1060   14.9130   13.2370 N.3   285  TRP285     -0.1241
     88  CA        29.2010   16.0530   13.1380 C.3   285  TRP285      0.1605
     89  C         29.8850   17.3600   12.9120 C.2   285  TRP285      0.2264
     90  O         29.1880   18.3450   12.5870 O.2   285  TRP285     -0.2867
     91  CB        28.2960   16.1430   14.3840 C.3   285  TRP285      0.0550
     92  CG        29.0290   16.1580   15.6910 C.ar  285  TRP285      0.0003
     93  CD1       29.2360   15.0820   16.5010 C.ar  285  TRP285      0.0946
     94  CD2       29.7230   17.2340   16.3130 C.ar  285  TRP285      0.0152
     95  NE1       30.0110   15.4210   17.5850 N.ar  285  TRP285     -0.2442
     96  CE2       30.3240   16.7370   17.4820 C.ar  285  TRP285      0.0810
     97  CE3       29.8830   18.6020   16.0160 C.ar  285  TRP285      0.0012
     98  CZ2       31.0880   17.5480   18.3190 C.ar  285  TRP285      0.0191
     99  CZ3       30.6560   19.3960   16.8510 C.ar  285  TRP285      0.0001
    100  CH2       31.2450   18.8310   17.9990 C.ar  285  TRP285      0.0015
    101  N         20.3420   24.7790   12.1180 N.3   313  LYS313     -0.1245
    102  CA        21.7130   25.2510   12.2300 C.3   313  LYS313      0.1561
    103  C         22.0770   26.1230   11.0480 C.2   313  LYS313      0.2260
    104  O         21.9930   25.6980    9.8970 O.2   313  LYS313     -0.2867
    105  CB        22.6360   24.0420   12.2890 C.3   313  LYS313      0.0271
    106  CG        24.1220   24.3590   12.2420 C.3   313  LYS313      0.0035
    107  CD        24.6760   25.1080   13.3930 C.3   313  LYS313      0.0206
    108  CE        26.0460   25.6580   13.0190 C.3   313  LYS313      0.1093
    109  NZ        26.6950   26.2770   14.1870 N.3   313  LYS313     -0.1314
    110  N         31.0600   24.9040   13.9610 N.3   319  ASN319     -0.1240
    111  CA        30.6370   23.9210   14.9560 C.3   319  ASN319      0.1653
    112  C         31.6440   23.7070   16.0980 C.2   319  ASN319      0.2266
    113  O         31.3560   23.0430   17.0780 O.2   319  ASN319     -0.2867
    114  CB        30.4550   22.5930   14.2420 C.3   319  ASN319      0.1155
    115  CG        29.3620   22.5850   13.2350 C.2   319  ASN319      0.2627
    116  OD1       29.4300   21.8460   12.2490 O.2   319  ASN319     -0.2716
    117  ND2       28.3210   23.3420   13.5070 N.am  319  ASN319     -0.0877
    118  N         36.9910   20.0550   20.8750 N.3   330  ASP330     -0.1239
    119  CA        36.2830   18.7960   20.7190 C.3   330  ASP330      0.1674
    120  C         36.9720   18.0120   19.6060 C.2   330  ASP330      0.2266
    121  O         37.0430   18.4890   18.4690 O.2   330  ASP330     -0.2867
    122  CB        34.8290   19.0860   20.3680 C.3   330  ASP330      0.1410
    123  CG        33.9690   17.8380   20.4260 C.2   330  ASP330      0.3668
    124  OD1       34.3510   16.8370   19.7990 O.co2 330  ASP330     -0.2456
    125  OD2       32.9030   17.8600   21.0840 O.co2 330  ASP330     -0.2456
    126  N         33.6050   27.6610   18.0610 N.3   345  ALA345     -0.1245
    127  CA        32.2230   27.4140   17.8600 C.3   345  ALA345      0.1562
    128  C         31.4510   28.7200   17.8740 C.2   345  ALA345      0.2260
    129  O         31.6340   29.6010   18.7650 O.2   345  ALA345     -0.2867
    130  CB        31.6740   26.4570   18.9070 C.3   345  ALA345      0.0290
@<TRIPOS>BOND
     1   104   103    2
     2   103   102    1
     3   101   102    1
     4   102   105    1
     5   106   105    1
     6   106   107    1
     7   116   115    2
     8    85    84    2
     9    84    83    1
    10    90    89    2
    11    89    88    1
    12   108   107    1
    13   108   109    1
    14    83    82    1
    15    83    86    1
    16    88    87    1
    17    88    91    1
    18   115   117   am
    19   115   114    1
    20   110   111    1
    21   114   111    1
    22    91    92    1
    23   111   112    1
    24     9     7   ar
    25     9    10   ar
    26    92    94   ar
    27    92    93   ar
    28     7     6   ar
    29    97    94   ar
    30    97    99   ar
    31    12    10   ar
    32    12    14   ar
    33   112   113    2
    34    10     8   ar
    35    94    96   ar
    36    93    95   ar
    37    99   100   ar
    38    14    13   ar
    39     6     8   ar
    40     6     5    1
    41     1     2    1
    42     8    11   ar
    43    96    95   ar
    44    96    98   ar
    45   127   128    1
    46   127   126    1
    47   127   130    1
    48   128   129    2
    49   100    98   ar
    50     5     2    1
    51    13    11   ar
    52   121   120    2
    53     2     3    1
    54    72    71    1
    55    72    73    1
    56   120   119    1
    57     3     4    2
    58    71    68    1
    59   124   123   ar
    60   122   123    1
    61   122   119    1
    62   123   125   ar
    63   119   118    1
    64    68    67    1
    65    68    69    1
    66    73    67    1
    67    22    20   ar
    68    21    20   ar
    69    20    19    1
    70    74    69   am
    71    74    75    1
    72    32    30   ar
    73    32    33   ar
    74    69    70    2
    75    19    16    1
    76    30    28   ar
    77    65    64    2
    78    78    75    1
    79    78    79    1
    80    34    33    1
    81    75    76    1
    82    33    31   ar
    83    80    79   ar
    84    79    81   ar
    85    15    16    1
    86    28    27    1
    87    28    29   ar
    88    27    24    1
    89    31    29   ar
    90    64    66   am
    91    64    63    1
    92    16    17    1
    93    52    51   ar
    94    76    77    2
    95    63    60    1
    96    45    43    1
    97    23    24    1
    98    24    25    1
    99    57    56    2
   100    17    18    2
   101    51    53   ar
   102    51    50    1
   103    58    55    1
   104    43    44    1
   105    43    42    2
   106    54    55    1
   107    26    25    2
   108    50    47    1
   109    56    55    1
   110    59    60    1
   111    42    41    1
   112    60    61    1
   113    41    40    1
   114    47    48    1
   115    47    46    1
   116    61    62    2
   117    49    48    2
   118    40    39    1
   119    46    37   am
   120    39    36    1
   121    37    38    2
   122    37    36    1
   123    36    35    1
