@<TRIPOS>MOLECULE
tmp/1ocbB06.pdb
 83 78 0 0 0
SMALL
GASTEIGER

@<TRIPOS>ATOM
      1  N        -30.7000   22.6060  -26.8030 N.3    14  ASN14      -0.1225
      2  CA       -30.0150   22.0160  -27.9380 C.3    14  ASN14       0.1785
      3  C        -29.9390   22.9640  -29.1530 C.2    14  ASN14       0.2597
      4  O        -29.2620   22.6710  -30.1320 O.2    14  ASN14      -0.2718
      5  CB       -30.6380   20.6860  -28.2880 C.3    14  ASN14       0.1169
      6  CG       -29.7640   19.8810  -29.2160 C.2    14  ASN14       0.2627
      7  OD1      -28.6100   19.6310  -28.9190 O.2    14  ASN14      -0.2716
      8  ND2      -30.3050   19.4740  -30.3090 N.am   14  ASN14      -0.0877
      9  N        -30.6990   24.0600  -29.1440 N.am   15  TYR15      -0.1976
     10  CA       -30.7420   24.9560  -30.3070 C.3    15  TYR15       0.1639
     11  C        -29.4580   25.7880  -30.3730 C.2    15  TYR15       0.2290
     12  O        -28.8300   25.8840  -31.4050 O.2    15  TYR15      -0.2864
     13  CB       -32.0170   25.7900  -30.3140 C.3    15  TYR15       0.0560
     14  CG       -33.1460   24.8920  -29.9390 C.ar   15  TYR15      -0.0198
     15  CD1      -33.4700   23.7810  -30.6950 C.ar   15  TYR15      -0.0009
     16  CD2      -33.8100   25.0720  -28.7160 C.ar   15  TYR15      -0.0009
     17  CE1      -34.4700   22.8940  -30.2400 C.ar   15  TYR15       0.0417
     18  CE2      -34.7730   24.2340  -28.3130 C.ar   15  TYR15       0.0417
     19  CZ       -35.1010   23.1640  -29.0470 C.ar   15  TYR15       0.1957
     20  OH       -36.0840   22.3200  -28.5000 O.3    15  TYR15      -0.2866
     21  N        -26.6770   23.3690  -31.1960 N.3    18  SER18      -0.1202
     22  CA       -26.7170   23.0530  -32.6280 C.3    18  SER18       0.2020
     23  C        -26.1080   24.1580  -33.4900 C.2    18  SER18       0.2618
     24  O        -25.3540   23.8550  -34.4050 O.2    18  SER18      -0.2717
     25  CB       -28.1150   22.6700  -33.1080 C.3    18  SER18       0.2103
     26  OG       -28.5400   21.4990  -32.4510 O.3    18  SER18      -0.2182
     27  N        -26.3730   25.4220  -33.1480 N.am   19  GLU19      -0.1979
     28  CA       -25.7910   26.5330  -33.8630 C.3    19  GLU19       0.1602
     29  C        -24.2730   26.4640  -33.7490 C.2    19  GLU19       0.2287
     30  O        -23.5620   26.5780  -34.7270 O.2    19  GLU19      -0.2864
     31  CB       -26.2150   27.8820  -33.3150 C.3    19  GLU19       0.0415
     32  CG       -27.6730   28.1690  -33.6080 C.3    19  GLU19       0.1163
     33  CD       -28.1130   29.4590  -32.9690 C.2    19  GLU19       0.3649
     34  OE1      -27.9140   29.6530  -31.7500 O.co2  19  GLU19      -0.2457
     35  OE2      -28.6430   30.3010  -33.7110 O.co2  19  GLU19      -0.2457
     36  N        -22.9160   23.0460  -35.5970 N.3    22  THR22      -0.1203
     37  CA       -23.1570   22.8900  -37.0210 C.3    22  THR22       0.1994
     38  C        -22.7110   24.0700  -37.8510 C.2    22  THR22       0.2617
     39  O        -22.4970   23.8930  -39.0390 O.2    22  THR22      -0.2717
     40  CB       -24.6040   22.5510  -37.3650 C.3    22  THR22       0.1784
     41  OG1      -25.4740   23.6770  -37.0730 O.3    22  THR22      -0.2211
     42  CG2      -25.0950   21.3980  -36.5600 C.3    22  THR22       0.0376
     43  N        -22.6240   25.2550  -37.2490 N.am   23  LEU23      -0.1979
     44  CA       -22.3130   26.4810  -37.9660 C.3    23  LEU23       0.1596
     45  C        -20.9810   27.0490  -37.5690 C.2    23  LEU23       0.2287
     46  O        -20.1950   27.4350  -38.4410 O.2    23  LEU23      -0.2864
     47  CB       -23.3610   27.5460  -37.7900 C.3    23  LEU23       0.0297
     48  CG       -24.8220   27.1900  -37.9930 C.3    23  LEU23       0.0022
     49  CD1      -25.7600   28.3770  -37.6740 C.3    23  LEU23       0.0001
     50  CD2      -24.9570   26.7640  -39.4450 C.3    23  LEU23       0.0001
     51  N        -43.3490   23.5200  -31.1820 N.3    57  THR57      -0.1203
     52  CA       -42.2110   22.7090  -31.6120 C.3    57  THR57       0.1994
     53  C        -41.0680   22.7390  -30.5820 C.2    57  THR57       0.2617
     54  O        -40.9330   21.8310  -29.7670 O.2    57  THR57      -0.2717
     55  CB       -41.7070   23.1850  -32.9850 C.3    57  THR57       0.1784
     56  OG1      -41.4820   24.6200  -32.9750 O.3    57  THR57      -0.2211
     57  CG2      -42.7710   22.9050  -34.0760 C.3    57  THR57       0.0376
     58  N        -40.2700   23.8030  -30.6220 N.am   58  LEU58      -0.1979
     59  CA       -39.0600   23.9030  -29.8010 C.3    58  LEU58       0.1596
     60  C        -39.3240   23.9950  -28.3050 C.2    58  LEU58       0.2287
     61  O        -38.5340   23.4710  -27.5080 O.2    58  LEU58      -0.2864
     62  CB       -38.2600   25.0790  -30.2440 C.3    58  LEU58       0.0297
     63  CG       -37.9740   25.1690  -31.7320 C.3    58  LEU58       0.0022
     64  CD1      -36.9480   26.2470  -31.9790 C.3    58  LEU58       0.0001
     65  CD2      -37.4740   23.8240  -32.3110 C.3    58  LEU58       0.0001
     66  N        -40.3240   20.4730  -27.2870 N.3    61  GLN61      -0.1245
     67  CA       -39.1790   19.6010  -27.3210 C.3    61  GLN61       0.1566
     68  C        -38.2670   19.7880  -26.1070 C.2    61  GLN61       0.2260
     69  O        -37.8510   18.8440  -25.4900 O.2    61  GLN61      -0.2867
     70  CB       -38.3630   19.8150  -28.5790 C.3    61  GLN61       0.0367
     71  CG       -37.0310   19.0920  -28.4600 C.3    61  GLN61       0.0905
     72  CD       -36.0920   19.3990  -29.5700 C.2    61  GLN61       0.2608
     73  OE1      -36.5180   19.5630  -30.7060 O.2    61  GLN61      -0.2717
     74  NE2      -34.7840   19.4430  -29.2580 N.am   61  GLN61      -0.0878
     75  N        -25.6920   35.0130  -31.6760 N.3   314  GLU314     -0.1245
     76  CA       -26.9090   35.3480  -32.4270 C.3   314  GLU314      0.1567
     77  C        -26.9740   36.8530  -32.6240 C.2   314  GLU314      0.2260
     78  O        -26.8950   37.6230  -31.6630 O.2   314  GLU314     -0.2867
     79  CB       -28.1430   34.8430  -31.6540 C.3   314  GLU314      0.0388
     80  CG       -28.1740   33.3300  -31.5850 C.3   314  GLU314      0.1160
     81  CD       -29.3580   32.6910  -30.8720 C.2   314  GLU314      0.3649
     82  OE1      -30.3700   33.3540  -30.5750 O.co2 314  GLU314     -0.2457
     83  OE2      -29.3050   31.4450  -30.6270 O.co2 314  GLU314     -0.2457
@<TRIPOS>BOND
     1    50    48    1
     2    39    38    2
     3    46    45    2
     4    48    47    1
     5    48    49    1
     6    44    47    1
     7    44    45    1
     8    44    43    1
     9    38    43   am
    10    38    37    1
    11    40    41    1
    12    40    37    1
    13    40    42    1
    14    37    36    1
    15    30    29    2
    16    24    23    2
    17    57    55    1
    18    28    29    1
    19    28    31    1
    20    28    27    1
    21    35    33   ar
    22    32    31    1
    23    32    33    1
    24    23    27   am
    25    23    22    1
    26    25    22    1
    27    25    26    1
    28    55    56    1
    29    55    52    1
    30    33    34   ar
    31    22    21    1
    32    77    76    1
    33    77    78    2
    34    76    75    1
    35    76    79    1
    36    65    63    1
    37    64    63    1
    38    63    62    1
    39    79    80    1
    40    52    51    1
    41    52    53    1
    42    80    81    1
    43    12    11    2
    44    81    83   ar
    45    81    82   ar
    46    73    72    2
    47    15    17   ar
    48    15    14   ar
    49    58    53   am
    50    58    59    1
    51    53    54    2
    52    11    10    1
    53    13    10    1
    54    13    14    1
    55     8     6   am
    56    10     9    1
    57    62    59    1
    58    17    19   ar
    59     4     3    2
    60    14    16   ar
    61    59    60    1
    62    72    74   am
    63    72    71    1
    64     6     7    2
    65     6     5    1
    66     3     9   am
    67     3     2    1
    68    19    20    1
    69    19    18   ar
    70    16    18   ar
    71    70    71    1
    72    70    67    1
    73    60    61    2
    74     5     2    1
    75     2     1    1
    76    67    66    1
    77    67    68    1
    78    68    69    2
