@<TRIPOS>MOLECULE
tmp/1ocbA03.pdb
 110 106 0 0 0
SMALL
GASTEIGER

@<TRIPOS>ATOM
      1  N         -6.6120    2.9240   -1.1630 N.3    85  TYR85      -0.1241
      2  CA        -7.1130    1.8060   -0.3630 C.3    85  TYR85       0.1605
      3  C         -8.6250    1.8560   -0.2100 C.2    85  TYR85       0.2264
      4  O         -9.1360    2.1210    0.8940 O.2    85  TYR85      -0.2867
      5  CB        -6.4560    1.8050    1.0310 C.3    85  TYR85       0.0534
      6  CG        -6.7770    0.5960    1.8780 C.ar   85  TYR85      -0.0201
      7  CD1       -6.4560   -0.6830    1.4450 C.ar   85  TYR85      -0.0009
      8  CD2       -7.4000    0.7350    3.1270 C.ar   85  TYR85      -0.0009
      9  CE1       -6.7330   -1.8150    2.2500 C.ar   85  TYR85       0.0417
     10  CE2       -7.7070   -0.3670    3.9170 C.ar   85  TYR85       0.0417
     11  CZ        -7.3720   -1.6390    3.4830 C.ar   85  TYR85       0.1957
     12  OH        -7.6610   -2.7320    4.2890 O.3    85  TYR85      -0.2866
     13  N        -10.3100   -6.0470    1.6880 N.3    91  ASP91      -0.1239
     14  CA        -9.8440   -6.8890    2.7970 C.3    91  ASP91       0.1674
     15  C        -10.5620   -8.2210    2.7820 C.2    91  ASP91       0.2266
     16  O        -11.1430   -8.6590    3.7630 O.2    91  ASP91      -0.2867
     17  CB       -10.0810   -6.1720    4.1220 C.3    91  ASP91       0.1410
     18  CG        -9.2350   -6.7120    5.2490 C.2    91  ASP91       0.3668
     19  OD1       -8.0920   -7.1890    5.0180 O.co2  91  ASP91      -0.2456
     20  OD2       -9.6650   -6.6380    6.4280 O.co2  91  ASP91      -0.2456
     21  N        -10.1090  -11.3650    2.8200 N.3    93  ALA93      -0.1231
     22  CA        -9.8360  -12.5420    3.6420 C.3    93  ALA93       0.1694
     23  C         -9.9640  -12.2630    5.1400 C.2    93  ALA93       0.2591
     24  O         -9.6520  -13.1350    5.9690 O.2    93  ALA93      -0.2718
     25  CB        -8.4150  -13.1130    3.3190 C.3    93  ALA93       0.0304
     26  N        -10.4310  -11.0820    5.5030 N.am   94  ALA94      -0.1980
     27  CA       -10.5570  -10.7440    6.9130 C.3    94  ALA94       0.1597
     28  C        -11.7990   -9.8870    7.1280 C.2    94  ALA94       0.2287
     29  O        -12.5390   -9.5730    6.1660 O.2    94  ALA94      -0.2864
     30  CB        -9.3270  -10.0670    7.3680 C.3    94  ALA94       0.0319
     31  N        -10.9390   -4.7230    8.3330 N.3    97  SER97      -0.1217
     32  CA       -10.8210   -3.5300    7.5110 C.3    97  SER97       0.1889
     33  C        -11.7450   -3.5840    6.2800 C.2    97  SER97       0.2288
     34  O        -11.4780   -2.9150    5.2800 O.2    97  SER97      -0.2866
     35  CB        -9.3820   -3.3010    7.1190 C.3    97  SER97       0.2089
     36  OG        -8.6510   -2.7170    8.2140 O.3    97  SER97      -0.2183
     37  N         -2.8250   -5.5780    0.2810 N.3   137  ASP137     -0.1239
     38  CA        -3.4210   -6.9130    0.5170 C.3   137  ASP137      0.1674
     39  C         -4.1690   -7.4870   -0.6850 C.2   137  ASP137      0.2266
     40  O         -4.2630   -8.7000   -0.7770 O.2   137  ASP137     -0.2867
     41  CB        -4.3610   -6.9650    1.7010 C.3   137  ASP137      0.1410
     42  CG        -3.7480   -6.5250    2.9950 C.2   137  ASP137      0.3668
     43  OD1       -2.5240   -6.6900    3.2220 O.co2 137  ASP137     -0.2456
     44  OD2       -4.4780   -5.9990    3.8860 O.co2 137  ASP137     -0.2456
     45  N         -3.9960  -11.4310   -1.6060 N.3   141  ASN141     -0.1240
     46  CA        -5.1710  -12.2840   -1.4380 C.3   141  ASN141      0.1653
     47  C         -5.5320  -13.0890   -2.6900 C.2   141  ASN141      0.2266
     48  O         -6.0200  -14.2310   -2.5990 O.2   141  ASN141     -0.2867
     49  CB        -6.3440  -11.4360   -0.9540 C.3   141  ASN141      0.1155
     50  CG        -6.3310  -11.2230    0.5610 C.2   141  ASN141      0.2627
     51  OD1       -5.8830  -12.0930    1.3040 O.2   141  ASN141     -0.2716
     52  ND2       -6.8430  -10.0600    1.0300 N.am  141  ASN141     -0.0877
     53  N          4.2180   -9.7770    2.0190 N.3   182  HIS182     -0.1241
     54  CA         5.4720   -9.7140    2.8110 C.3   182  HIS182      0.1621
     55  C          6.1340  -11.0990    2.8400 C.2   182  HIS182      0.2264
     56  O          5.5800  -12.0760    2.2920 O.2   182  HIS182     -0.2867
     57  CB         5.1370   -9.1690    4.2290 C.3   182  HIS182      0.0745
     58  CG         4.2400  -10.0510    5.0130 C.ar  182  HIS182      0.0817
     59  ND1        4.6990  -11.1620    5.6900 N.ar  182  HIS182     -0.2268
     60  CD2        2.9040   -9.9830    5.2490 C.ar  182  HIS182      0.1154
     61  CE1        3.6870  -11.7530    6.2920 C.ar  182  HIS182      0.1986
     62  NE2        2.5940  -11.0370    6.0790 N.ar  182  HIS182     -0.2212
     63  N          4.0550  -14.1540    3.8020 N.3   185  TRP185     -0.1241
     64  CA         2.8080  -14.3130    3.0720 C.3   185  TRP185      0.1605
     65  C          3.1960  -14.8810    1.7240 C.2   185  TRP185      0.2264
     66  O          3.0170  -16.0910    1.5240 O.2   185  TRP185     -0.2867
     67  CB         2.0930  -12.9880    2.9350 C.3   185  TRP185      0.0550
     68  CG         0.6990  -13.1130    2.4310 C.ar  185  TRP185      0.0003
     69  CD1        0.1160  -14.2170    1.8490 C.ar  185  TRP185      0.0946
     70  CD2       -0.2870  -12.0950    2.4250 C.ar  185  TRP185      0.0152
     71  NE1       -1.1810  -13.9370    1.5090 N.ar  185  TRP185     -0.2442
     72  CE2       -1.4580  -12.6470    1.8480 C.ar  185  TRP185      0.0810
     73  CE3       -0.3170  -10.7570    2.8690 C.ar  185  TRP185      0.0012
     74  CZ2       -2.6400  -11.9140    1.7090 C.ar  185  TRP185      0.0191
     75  CZ3       -1.4960  -10.0700    2.7540 C.ar  185  TRP185      0.0001
     76  CH2       -2.6070  -10.6310    2.1490 C.ar  185  TRP185      0.0015
     77  N          3.7150   -4.0460    4.2680 N.3   219  VAL219     -0.1231
     78  CA         2.7820   -2.9950    4.6400 C.3   219  VAL219      0.1692
     79  C          1.8580   -3.4710    5.7580 C.2   219  VAL219      0.2592
     80  O          1.1980   -4.5530    5.6390 O.2   219  VAL219     -0.2718
     81  CB         1.9020   -2.5670    3.4160 C.3   219  VAL219      0.0266
     82  CG1        0.8380   -1.5830    3.8620 C.3   219  VAL219      0.0020
     83  CG2        2.8130   -1.8890    2.3600 C.3   219  VAL219      0.0020
     84  N          1.7850   -2.6940    6.8450 N.am  220  ALA220     -0.1966
     85  CA         0.9870   -3.0550    8.0180 C.3   220  ALA220      0.1728
     86  C          1.4060   -4.3760    8.6870 C.2   220  ALA220      0.2616
     87  O          0.6260   -5.0190    9.4050 O.2   220  ALA220     -0.2715
     88  CB        -0.5230   -3.0220    7.7030 C.3   220  ALA220      0.0334
     89  N          2.6350   -4.8050    8.4350 N.am  221  ASN221     -0.1972
     90  CA         3.1750   -5.9710    9.1040 C.3   221  ASN221      0.1688
     91  C          4.4810   -5.5830    9.8160 C.2   221  ASN221      0.2292
     92  O          4.7300   -4.3910   10.0080 O.2   221  ASN221     -0.2864
     93  CB         3.3070   -7.1430    8.1280 C.3   221  ASN221      0.1181
     94  CG         3.0860   -8.5000    8.8220 C.2   221  ASN221      0.2629
     95  OD1        3.9330   -8.9210    9.6400 O.2   221  ASN221     -0.2716
     96  ND2        1.9290   -9.1540    8.5460 N.am  221  ASN221     -0.0877
     97  N         -1.3800  -11.0740   12.4340 N.3   282  TRP282     -0.1241
     98  CA        -1.1510   -9.7240   11.9110 C.3   282  TRP282      0.1605
     99  C         -1.7820   -8.6140   12.7570 C.2   282  TRP282      0.2264
    100  O         -1.4850   -7.4400   12.5510 O.2   282  TRP282     -0.2867
    101  CB        -1.6700   -9.6080   10.4290 C.3   282  TRP282      0.0550
    102  CG        -3.0540  -10.1200   10.2500 C.ar  282  TRP282      0.0003
    103  CD1       -3.4110  -11.3400    9.7940 C.ar  282  TRP282      0.0946
    104  CD2       -4.2790   -9.4160   10.5230 C.ar  282  TRP282      0.0152
    105  NE1       -4.7770  -11.4570    9.7600 N.ar  282  TRP282     -0.2442
    106  CE2       -5.3400  -10.2910   10.1950 C.ar  282  TRP282      0.0810
    107  CE3       -4.5900   -8.1230   10.9600 C.ar  282  TRP282      0.0012
    108  CZ2       -6.6770   -9.9430   10.3330 C.ar  282  TRP282      0.0191
    109  CZ3       -5.9730   -7.7660   11.1070 C.ar  282  TRP282      0.0001
    110  CH2       -6.9670   -8.6700   10.8090 C.ar  282  TRP282      0.0015
@<TRIPOS>BOND
     1    47    48    2
     2    47    46    1
     3    45    46    1
     4    46    49    1
     5     1     2    1
     6    49    50    1
     7    40    39    2
     8    39    38    1
     9     2     3    1
    10     2     5    1
    11     3     4    2
    12    37    38    1
    13    38    41    1
    14    50    52   am
    15    50    51    2
    16     5     6    1
    17     7     6   ar
    18     7     9   ar
    19    71    72   ar
    20    71    69   ar
    21    66    65    2
    22    13    14    1
    23    41    42    1
    24    74    72   ar
    25    74    76   ar
    26    65    64    1
    27    72    70   ar
    28    69    68   ar
    29     6     8   ar
    30    53    54    1
    31    76    75   ar
    32     9    11   ar
    33    56    55    2
    34    83    81    1
    35    70    68   ar
    36    70    73   ar
    37    68    67    1
    38    75    73   ar
    39    15    14    1
    40    15    16    2
    41    14    17    1
    42    54    55    1
    43    54    57    1
    44    21    22    1
    45    67    64    1
    46    42    43   ar
    47    42    44   ar
    48    64    63    1
    49     8    10   ar
    50    25    22    1
    51    81    82    1
    52    81    78    1
    53    11    10   ar
    54    11    12    1
    55    22    23    1
    56    17    18    1
    57    57    58    1
    58    77    78    1
    59    78    79    1
    60    58    60   ar
    61    58    59   ar
    62    19    18   ar
    63    23    26   am
    64    23    24    2
    65    60    62   ar
    66    18    20   ar
    67    34    33    2
    68    26    27    1
    69    80    79    2
    70    59    61   ar
    71    79    84   am
    72    62    61   ar
    73    29    28    2
    74    33    32    1
    75    84    85    1
    76    27    28    1
    77    27    30    1
    78    35    32    1
    79    35    36    1
    80    32    31    1
    81    88    85    1
    82    85    86    1
    83    93    94    1
    84    93    90    1
    85    89    86   am
    86    89    90    1
    87    96    94   am
    88    86    87    2
    89    94    95    2
    90    90    91    1
    91   105   103   ar
    92   105   106   ar
    93   103   102   ar
    94    91    92    2
    95   106   108   ar
    96   106   104   ar
    97   102   101    1
    98   102   104   ar
    99   108   110   ar
   100   101    98    1
   101   104   107   ar
   102   110   109   ar
   103   107   109   ar
   104    98    97    1
   105    98    99    1
   106   100    99    2
