@<TRIPOS>MOLECULE
tmp/1ocbA02.pdb
 128 127 0 0 0
SMALL
GASTEIGER

@<TRIPOS>ATOM
      1  N        -10.1090  -11.3650    2.8200 N.3    93  ALA93      -0.1245
      2  CA        -9.8360  -12.5420    3.6420 C.3    93  ALA93       0.1562
      3  C         -9.9640  -12.2630    5.1400 C.2    93  ALA93       0.2260
      4  O         -9.6520  -13.1350    5.9690 O.2    93  ALA93      -0.2867
      5  CB        -8.4150  -13.1130    3.3190 C.3    93  ALA93       0.0290
      6  N         -3.9960  -11.4310   -1.6060 N.3   141  ASN141     -0.1240
      7  CA        -5.1710  -12.2840   -1.4380 C.3   141  ASN141      0.1653
      8  C         -5.5320  -13.0890   -2.6900 C.2   141  ASN141      0.2266
      9  O         -6.0200  -14.2310   -2.5990 O.2   141  ASN141     -0.2867
     10  CB        -6.3440  -11.4360   -0.9540 C.3   141  ASN141      0.1155
     11  CG        -6.3310  -11.2230    0.5610 C.2   141  ASN141      0.2627
     12  OD1       -5.8830  -12.0930    1.3040 O.2   141  ASN141     -0.2716
     13  ND2       -6.8430  -10.0600    1.0300 N.am  141  ASN141     -0.0877
     14  N         -3.1540  -16.2840   -2.6050 N.3   144  THR144     -0.1203
     15  CA        -3.2930  -17.3410   -1.6190 C.3   144  THR144      0.1994
     16  C         -4.6880  -17.6110   -1.1120 C.2   144  THR144      0.2617
     17  O         -4.8870  -18.6330   -0.4660 O.2   144  THR144     -0.2717
     18  CB        -2.4180  -17.0890   -0.3770 C.3   144  THR144      0.1784
     19  OG1       -2.9220  -15.9760    0.3530 O.3   144  THR144     -0.2211
     20  CG2       -0.9820  -16.7080   -0.7570 C.3   144  THR144      0.0376
     21  N         -5.6490  -16.7330   -1.4020 N.am  145  ASN145     -0.1974
     22  CA        -6.9880  -16.8500   -0.8070 C.3   145  ASN145      0.1688
     23  C         -8.1780  -17.0190   -1.7440 C.2   145  ASN145      0.2292
     24  O         -9.3190  -16.6610   -1.3870 O.2   145  ASN145     -0.2864
     25  CB        -7.2480  -15.7050    0.1820 C.3   145  ASN145      0.1181
     26  CG        -6.5120  -15.8820    1.4920 C.2   145  ASN145      0.2629
     27  OD1       -6.4540  -16.9800    2.0510 O.2   145  ASN145     -0.2716
     28  ND2       -5.9650  -14.7930    2.0040 N.am  145  ASN145     -0.0877
     29  N          4.2180   -9.7770    2.0190 N.3   182  HIS182     -0.1241
     30  CA         5.4720   -9.7140    2.8110 C.3   182  HIS182      0.1621
     31  C          6.1340  -11.0990    2.8400 C.2   182  HIS182      0.2264
     32  O          5.5800  -12.0760    2.2920 O.2   182  HIS182     -0.2867
     33  CB         5.1370   -9.1690    4.2290 C.3   182  HIS182      0.0745
     34  CG         4.2400  -10.0510    5.0130 C.ar  182  HIS182      0.0817
     35  ND1        4.6990  -11.1620    5.6900 N.ar  182  HIS182     -0.2268
     36  CD2        2.9040   -9.9830    5.2490 C.ar  182  HIS182      0.1154
     37  CE1        3.6870  -11.7530    6.2920 C.ar  182  HIS182      0.1986
     38  NE2        2.5940  -11.0370    6.0790 N.ar  182  HIS182     -0.2212
     39  N          6.4510  -13.4380    4.9800 N.3   184  GLY184     -0.1210
     40  CA         5.6560  -14.5180    5.5610 C.3   184  GLY184      0.1956
     41  C          4.2970  -14.7820    4.9420 C.2   184  GLY184      0.2611
     42  O          3.4540  -15.5020    5.5150 O.2   184  GLY184     -0.2717
     43  N          4.0550  -14.1540    3.8020 N.am  185  TRP185     -0.1976
     44  CA         2.8080  -14.3130    3.0720 C.3   185  TRP185      0.1640
     45  C          3.1960  -14.8810    1.7240 C.2   185  TRP185      0.2290
     46  O          3.0170  -16.0910    1.5240 O.2   185  TRP185     -0.2864
     47  CB         2.0930  -12.9880    2.9350 C.3   185  TRP185      0.0576
     48  CG         0.6990  -13.1130    2.4310 C.ar  185  TRP185      0.0006
     49  CD1        0.1160  -14.2170    1.8490 C.ar  185  TRP185      0.0946
     50  CD2       -0.2870  -12.0950    2.4250 C.ar  185  TRP185      0.0152
     51  NE1       -1.1810  -13.9370    1.5090 N.ar  185  TRP185     -0.2442
     52  CE2       -1.4580  -12.6470    1.8480 C.ar  185  TRP185      0.0810
     53  CE3       -0.3170  -10.7570    2.8690 C.ar  185  TRP185      0.0012
     54  CZ2       -2.6400  -11.9140    1.7090 C.ar  185  TRP185      0.0191
     55  CZ3       -1.4960  -10.0700    2.7540 C.ar  185  TRP185      0.0001
     56  CH2       -2.6070  -10.6310    2.1490 C.ar  185  TRP185      0.0015
     57  N          6.8810  -17.4310    1.1210 N.3   188  TRP188     -0.1241
     58  CA         6.9210  -18.8700    1.2770 C.3   188  TRP188      0.1605
     59  C          7.2090  -19.4950   -0.0940 C.2   188  TRP188      0.2264
     60  O          6.6480  -19.0610   -1.1210 O.2   188  TRP188     -0.2867
     61  CB         5.5910  -19.3860    1.8420 C.3   188  TRP188      0.0550
     62  CG         5.4070  -19.1310    3.3000 C.ar  188  TRP188      0.0003
     63  CD1        4.7890  -18.0760    3.8760 C.ar  188  TRP188      0.0946
     64  CD2        5.9020  -19.9310    4.3700 C.ar  188  TRP188      0.0152
     65  NE1        4.8500  -18.1840    5.2460 N.ar  188  TRP188     -0.2442
     66  CE2        5.5300  -19.3170    5.5650 C.ar  188  TRP188      0.0810
     67  CE3        6.6190  -21.1200    4.4300 C.ar  188  TRP188      0.0012
     68  CZ2        5.8460  -19.8510    6.8200 C.ar  188  TRP188      0.0191
     69  CZ3        6.9540  -21.6440    5.6730 C.ar  188  TRP188      0.0001
     70  CH2        6.5590  -21.0190    6.8410 C.ar  188  TRP188      0.0015
     71  N          4.3250  -20.1450   -2.4670 N.3   191  ASN191     -0.1240
     72  CA         3.5740  -18.9630   -2.9240 C.3   191  ASN191      0.1653
     73  C          4.3450  -18.0280   -3.8230 C.2   191  ASN191      0.2266
     74  O          3.7750  -17.2500   -4.5940 O.2   191  ASN191     -0.2867
     75  CB         3.0940  -18.1490   -1.7080 C.3   191  ASN191      0.1155
     76  CG         2.1340  -18.9330   -0.8300 C.2   191  ASN191      0.2627
     77  OD1        1.5240  -19.9400   -1.2680 O.2   191  ASN191     -0.2716
     78  ND2        2.0140  -18.5030    0.4400 N.am  191  ASN191     -0.0877
     79  N          2.6350   -4.8050    8.4350 N.3   221  ASN221     -0.1240
     80  CA         3.1750   -5.9710    9.1040 C.3   221  ASN221      0.1653
     81  C          4.4810   -5.5830    9.8160 C.2   221  ASN221      0.2266
     82  O          4.7300   -4.3910   10.0080 O.2   221  ASN221     -0.2867
     83  CB         3.3070   -7.1430    8.1280 C.3   221  ASN221      0.1155
     84  CG         3.0860   -8.5000    8.8220 C.2   221  ASN221      0.2627
     85  OD1        3.9330   -8.9210    9.6400 O.2   221  ASN221     -0.2716
     86  ND2        1.9290   -9.1540    8.5460 N.am  221  ASN221     -0.0877
     87  N          3.3900  -16.6310   12.6600 N.3   279  TRP279     -0.1227
     88  CA         3.7440  -15.5530   11.7360 C.3   279  TRP279      0.1737
     89  C          2.5250  -14.8730   11.0870 C.2   279  TRP279      0.2596
     90  O          2.5520  -13.6890   10.7330 O.2   279  TRP279     -0.2718
     91  CB         4.6810  -16.0920   10.6640 C.3   279  TRP279      0.0564
     92  CG         5.5810  -15.0820   10.0460 C.ar  279  TRP279      0.0003
     93  CD1        5.6190  -13.7510   10.2950 C.ar  279  TRP279      0.0946
     94  CD2        6.5680  -15.3330    9.0440 C.ar  279  TRP279      0.0152
     95  NE1        6.5690  -13.1350    9.5040 N.ar  279  TRP279     -0.2442
     96  CE2        7.1980  -14.1020    8.7580 C.ar  279  TRP279      0.0810
     97  CE3        7.0150  -16.4840    8.3860 C.ar  279  TRP279      0.0012
     98  CZ2        8.2170  -13.9850    7.8230 C.ar  279  TRP279      0.0191
     99  CZ3        8.0400  -16.3600    7.4750 C.ar  279  TRP279      0.0001
    100  CH2        8.6060  -15.1220    7.1870 C.ar  279  TRP279      0.0015
    101  N          1.4310  -15.6310   10.9940 N.am  280  GLY280     -0.1957
    102  CA         0.2060  -15.1440   10.3920 C.3   280  GLY280      0.1869
    103  C         -0.6510  -14.3110   11.3260 C.2   280  GLY280      0.2309
    104  O         -1.7620  -13.8950   10.9490 O.2   280  GLY280     -0.2863
    105  N         -1.3800  -11.0740   12.4340 N.3   282  TRP282     -0.1241
    106  CA        -1.1510   -9.7240   11.9110 C.3   282  TRP282      0.1605
    107  C         -1.7820   -8.6140   12.7570 C.2   282  TRP282      0.2264
    108  O         -1.4850   -7.4400   12.5510 O.2   282  TRP282     -0.2867
    109  CB        -1.6700   -9.6080   10.4290 C.3   282  TRP282      0.0550
    110  CG        -3.0540  -10.1200   10.2500 C.ar  282  TRP282      0.0003
    111  CD1       -3.4110  -11.3400    9.7940 C.ar  282  TRP282      0.0946
    112  CD2       -4.2790   -9.4160   10.5230 C.ar  282  TRP282      0.0152
    113  NE1       -4.7770  -11.4570    9.7600 N.ar  282  TRP282     -0.2442
    114  CE2       -5.3400  -10.2910   10.1950 C.ar  282  TRP282      0.0810
    115  CE3       -4.5900   -8.1230   10.9600 C.ar  282  TRP282      0.0012
    116  CZ2       -6.6770   -9.9430   10.3330 C.ar  282  TRP282      0.0191
    117  CZ3       -5.9730   -7.7660   11.1070 C.ar  282  TRP282      0.0001
    118  CH2       -6.9670   -8.6700   10.8090 C.ar  282  TRP282      0.0015
    119  N         -8.4020  -12.8360   14.4990 N.3   329  HIS329     -0.1241
    120  CA        -6.9840  -12.5060   14.6760 C.3   329  HIS329      0.1621
    121  C         -6.7460  -11.4220   15.7260 C.2   329  HIS329      0.2264
    122  O         -5.7240  -11.4110   16.3920 O.2   329  HIS329     -0.2867
    123  CB        -6.3060  -12.0870   13.3840 C.3   329  HIS329      0.0745
    124  CG        -6.1550  -13.1990   12.3910 C.ar  329  HIS329      0.0817
    125  ND1       -7.0940  -13.4590   11.4160 N.ar  329  HIS329     -0.2268
    126  CD2       -5.1320  -14.0630   12.1710 C.ar  329  HIS329      0.1154
    127  CE1       -6.6700  -14.4660   10.6590 C.ar  329  HIS329      0.1986
    128  NE2       -5.4820  -14.8490   11.1020 N.ar  329  HIS329     -0.2212
@<TRIPOS>BOND
     1    74    73    2
     2    73    72    1
     3    72    71    1
     4    72    75    1
     5     8     9    2
     6     8     7    1
     7    14    15    1
     8    23    24    2
     9    23    22    1
    10    75    76    1
    11    15    16    1
    12    15    18    1
    13     6     7    1
    14     7    10    1
    15    21    16   am
    16    21    22    1
    17    77    76    2
    18    60    59    2
    19    16    17    2
    20    10    11    1
    21    76    78   am
    22    22    25    1
    23    20    18    1
    24    18    19    1
    25    59    58    1
    26    25    26    1
    27    11    13   am
    28    11    12    2
    29    57    58    1
    30    58    61    1
    31    26    28   am
    32    26    27    2
    33    51    52   ar
    34    51    49   ar
    35    46    45    2
    36    54    52   ar
    37    54    56   ar
    38    45    44    1
    39    61    62    1
    40    52    50   ar
    41    49    48   ar
    42    29    30    1
    43    56    55   ar
    44    32    31    2
    45    50    48   ar
    46    50    53   ar
    47    48    47    1
    48    55    53   ar
    49    30    31    1
    50    30    33    1
    51     1     2    1
    52    47    44    1
    53    44    43    1
    54    62    63   ar
    55    62    64   ar
    56     5     2    1
    57     2     3    1
    58    43    41   am
    59    63    65   ar
    60    33    34    1
    61    64    67   ar
    62    64    66   ar
    63    67    69   ar
    64    41    42    2
    65    41    40    1
    66    39    40    1
    67    34    36   ar
    68    34    35   ar
    69     3     4    2
    70    65    66   ar
    71    36    38   ar
    72    66    68   ar
    73    69    70   ar
    74    35    37   ar
    75    38    37   ar
    76    68    70   ar
    77   100    99   ar
    78   100    98   ar
    79    99    97   ar
    80    98    96   ar
    81    83    84    1
    82    83    80    1
    83    97    94   ar
    84    79    80    1
    85    86    84   am
    86    96    94   ar
    87    96    95   ar
    88    84    85    2
    89    94    92   ar
    90    80    81    1
    91    95    93   ar
    92   113   111   ar
    93   113   114   ar
    94   111   110   ar
    95    81    82    2
    96    92    93   ar
    97    92    91    1
    98   114   116   ar
    99   114   112   ar
   100   110   109    1
   101   110   112   ar
   102   116   118   ar
   103   102   101    1
   104   102   103    1
   105   109   106    1
   106   112   115   ar
   107   127   128   ar
   108   127   125   ar
   109    91    88    1
   110    90    89    2
   111   118   117   ar
   112   104   103    2
   113   115   117   ar
   114   101    89   am
   115    89    88    1
   116   128   126   ar
   117   125   124   ar
   118    88    87    1
   119   106   105    1
   120   106   107    1
   121   126   124   ar
   122   124   123    1
   123   108   107    2
   124   123   120    1
   125   119   120    1
   126   120   121    1
   127   121   122    2
