@<TRIPOS>MOLECULE
tmp/1ocbA04.pdb
 124 117 0 0 0
SMALL
GASTEIGER

@<TRIPOS>ATOM
      1  N         -3.3540    7.7060    4.0010 N.3    48  TRP48      -0.1241
      2  CA        -4.1700    6.6890    3.3760 C.3    48  TRP48       0.1605
      3  C         -5.4620    7.2910    2.8730 C.2    48  TRP48       0.2264
      4  O         -6.1280    8.0240    3.6210 O.2    48  TRP48      -0.2867
      5  CB        -4.4810    5.6060    4.3910 C.3    48  TRP48       0.0550
      6  CG        -3.3250    4.7330    4.7370 C.ar   48  TRP48       0.0003
      7  CD1       -2.1270    5.1120    5.2870 C.ar   48  TRP48       0.0946
      8  CD2       -3.2600    3.3200    4.5830 C.ar   48  TRP48       0.0152
      9  NE1       -1.3230    4.0130    5.4710 N.ar   48  TRP48      -0.2442
     10  CE2       -1.9870    2.8960    5.0730 C.ar   48  TRP48       0.0810
     11  CE3       -4.1360    2.3580    4.0830 C.ar   48  TRP48       0.0012
     12  CZ2       -1.5930    1.5490    5.0780 C.ar   48  TRP48       0.0191
     13  CZ3       -3.7780    1.0070    4.1480 C.ar   48  TRP48       0.0001
     14  CH2       -2.4960    0.6200    4.6030 C.ar   48  TRP48       0.0015
     15  N         -8.4340    5.9100    2.5790 N.3    50  ASP50      -0.1239
     16  CA        -9.2000    4.7410    2.9800 C.3    50  ASP50       0.1674
     17  C        -10.6830    4.8890    2.7850 C.2    50  ASP50       0.2266
     18  O        -11.4530    3.8790    2.8580 O.2    50  ASP50      -0.2867
     19  CB        -8.8770    4.3790    4.4390 C.3    50  ASP50       0.1410
     20  CG        -9.5400    5.3290    5.4300 C.2    50  ASP50       0.3668
     21  OD1       -9.3400    6.5670    5.2970 O.co2  50  ASP50      -0.2456
     22  OD2      -10.2670    4.9340    6.3820 O.co2  50  ASP50      -0.2456
     23  N         -6.6120    2.9240   -1.1630 N.3    85  TYR85      -0.1241
     24  CA        -7.1130    1.8060   -0.3630 C.3    85  TYR85       0.1605
     25  C         -8.6250    1.8560   -0.2100 C.2    85  TYR85       0.2264
     26  O         -9.1360    2.1210    0.8940 O.2    85  TYR85      -0.2867
     27  CB        -6.4560    1.8050    1.0310 C.3    85  TYR85       0.0534
     28  CG        -6.7770    0.5960    1.8780 C.ar   85  TYR85      -0.0201
     29  CD1       -6.4560   -0.6830    1.4450 C.ar   85  TYR85      -0.0009
     30  CD2       -7.4000    0.7350    3.1270 C.ar   85  TYR85      -0.0009
     31  CE1       -6.7330   -1.8150    2.2500 C.ar   85  TYR85       0.0417
     32  CE2       -7.7070   -0.3670    3.9170 C.ar   85  TYR85       0.0417
     33  CZ        -7.3720   -1.6390    3.4830 C.ar   85  TYR85       0.1957
     34  OH        -7.6610   -2.7320    4.2890 O.3    85  TYR85      -0.2866
     35  N        -13.2470   -4.8810   -0.0590 N.3    90  ARG90      -0.1245
     36  CA       -11.9040   -4.7110    0.4720 C.3    90  ARG90       0.1563
     37  C        -11.5900   -5.7250    1.5510 C.2    90  ARG90       0.2260
     38  O        -12.4920   -6.2310    2.2440 O.2    90  ARG90      -0.2867
     39  CB       -11.7870   -3.2980    1.0640 C.3    90  ARG90       0.0307
     40  CG       -10.3990   -2.7990    1.2120 C.3    90  ARG90       0.0489
     41  CD       -10.3600   -1.3160    1.6260 C.3    90  ARG90       0.2205
     42  NE       -10.7650   -1.1410    2.9990 N.pl3  90  ARG90      -0.0865
     43  CZ       -10.9860    0.0140    3.5930 C.cat  90  ARG90       0.5346
     44  NH1      -10.8610    1.1390    2.9400 N.pl3  90  ARG90       0.1354
     45  NH2      -11.3870    0.0520    4.8620 N.pl3  90  ARG90       0.1354
     46  N        -10.9390   -4.7230    8.3330 N.3    97  SER97      -0.1217
     47  CA       -10.8210   -3.5300    7.5110 C.3    97  SER97       0.1889
     48  C        -11.7450   -3.5840    6.2800 C.2    97  SER97       0.2288
     49  O        -11.4780   -2.9150    5.2800 O.2    97  SER97      -0.2866
     50  CB        -9.3820   -3.3010    7.1190 C.3    97  SER97       0.2089
     51  OG        -8.6510   -2.7170    8.2140 O.3    97  SER97      -0.2183
     52  N         -3.0630   -2.1610   -0.6290 N.3   136  PRO136     -0.2102
     53  CA        -2.5530   -3.1970    0.2640 C.3   136  PRO136      0.1504
     54  C         -3.4560   -4.3990    0.3730 C.2   136  PRO136      0.2575
     55  O         -4.6570   -4.2470    0.5340 O.2   136  PRO136     -0.2718
     56  CB        -2.4050   -2.4680    1.6050 C.3   136  PRO136      0.0282
     57  CG        -2.0810   -1.0500    1.1810 C.3   136  PRO136      0.0208
     58  CD        -2.9210   -0.8280   -0.0140 C.3   136  PRO136      0.0893
     59  N         -2.8250   -5.5780    0.2810 N.am  137  ASP137     -0.1974
     60  CA        -3.4210   -6.9130    0.5170 C.3   137  ASP137      0.1708
     61  C         -4.1690   -7.4870   -0.6850 C.2   137  ASP137      0.2293
     62  O         -4.2630   -8.7000   -0.7770 O.2   137  ASP137     -0.2864
     63  CB        -4.3610   -6.9650    1.7010 C.3   137  ASP137      0.1436
     64  CG        -3.7480   -6.5250    2.9950 C.2   137  ASP137      0.3671
     65  OD1       -2.5240   -6.6900    3.2220 O.co2 137  ASP137     -0.2456
     66  OD2       -4.4780   -5.9990    3.8860 O.co2 137  ASP137     -0.2456
     67  N          1.7850   -2.6940    6.8450 N.3   220  ALA220     -0.1245
     68  CA         0.9870   -3.0550    8.0180 C.3   220  ALA220      0.1562
     69  C          1.4060   -4.3760    8.6870 C.2   220  ALA220      0.2260
     70  O          0.6260   -5.0190    9.4050 O.2   220  ALA220     -0.2867
     71  CB        -0.5230   -3.0220    7.7030 C.3   220  ALA220      0.0290
     72  N          2.0630    1.7960    7.0600 N.3   310  LYS310     -0.1231
     73  CA         1.0850    1.7520    8.1200 C.3   310  LYS310      0.1678
     74  C          1.5380    2.6950    9.2370 C.2   310  LYS310      0.2434
     75  O          2.6050    2.4930    9.7600 O.2   310  LYS310     -0.2733
     76  CB         0.9420    0.3100    8.6460 C.3   310  LYS310      0.0284
     77  CG         0.0920    0.1770    9.9080 C.3   310  LYS310      0.0035
     78  CD        -1.3620    0.4570    9.6630 C.3   310  LYS310      0.0206
     79  CE        -2.1860    0.2900   10.9660 C.3   310  LYS310      0.1093
     80  NZ        -3.5970    0.3050   10.7080 N.3   310  LYS310     -0.1314
     81  N          0.7330    3.7040    9.6120 N.am  311  PRO311     -0.2729
     82  CA         1.1340    4.6130   10.7110 C.3   311  PRO311      0.1401
     83  C          0.9170    3.9270   12.0690 C.2   311  PRO311      0.2269
     84  O         -0.1960    3.7380   12.5040 O.2   311  PRO311     -0.2865
     85  CB         0.2220    5.8530   10.5240 C.3   311  PRO311      0.0296
     86  CG        -0.4830    5.6320    9.2270 C.3   311  PRO311      0.0237
     87  CD        -0.5250    4.1550    9.0060 C.3   311  PRO311      0.0939
     88  N         -2.3140    3.5830   14.7420 N.3   314  GLU314     -0.1245
     89  CA        -3.6220    3.3510   14.1260 C.3   314  GLU314      0.1567
     90  C         -3.8790    1.8500   14.1360 C.2   314  GLU314      0.2260
     91  O         -3.0580    1.0570   13.7090 O.2   314  GLU314     -0.2867
     92  CB        -3.6950    3.9360   12.7200 C.3   314  GLU314      0.0388
     93  CG        -3.4240    5.4190   12.7160 C.3   314  GLU314      0.1160
     94  CD        -3.4810    6.0870   11.3610 C.2   314  GLU314      0.3649
     95  OE1       -3.8250    5.4370   10.3490 O.co2 314  GLU314     -0.2457
     96  OE2       -3.2570    7.3480   11.3200 O.co2 314  GLU314     -0.2457
     97  N         -5.2330   -2.0420   13.8940 N.3   316  ASP316     -0.1239
     98  CA        -5.4080   -3.0070   12.8090 C.3   316  ASP316      0.1674
     99  C         -6.8120   -3.6310   12.8100 C.2   316  ASP316      0.2266
    100  O         -7.1950   -4.2640   11.8340 O.2   316  ASP316     -0.2867
    101  CB        -4.4310   -4.1600   12.9440 C.3   316  ASP316      0.1410
    102  CG        -3.0040   -3.7540   12.9060 C.2   316  ASP316      0.3668
    103  OD1       -2.6250   -2.9120   12.0300 O.co2 316  ASP316     -0.2456
    104  OD2       -2.1510   -4.2580   13.6870 O.co2 316  ASP316     -0.2456
    105  N        -17.1370   -5.8230   12.4870 N.3   325  ARG325     -0.1245
    106  CA       -15.8230   -6.0280   11.8850 C.3   325  ARG325      0.1563
    107  C        -14.8870   -6.8260   12.7730 C.2   325  ARG325      0.2260
    108  O        -13.6940   -6.8090   12.5540 O.2   325  ARG325     -0.2867
    109  CB       -15.2090   -4.6900   11.4880 C.3   325  ARG325      0.0307
    110  CG       -15.9780   -3.9130   10.3930 C.3   325  ARG325      0.0489
    111  CD       -15.1290   -2.9780    9.5290 C.3   325  ARG325      0.2205
    112  NE       -14.4750   -1.9880   10.3630 N.pl3 325  ARG325     -0.0865
    113  CZ       -13.5300   -1.1480    9.9530 C.cat 325  ARG325      0.5346
    114  NH1      -13.1320   -1.1020    8.6930 N.pl3 325  ARG325      0.1354
    115  NH2      -12.9700   -0.3280   10.8230 N.pl3 325  ARG325      0.1354
    116  N        -10.4110   -0.7420   13.3310 N.3   342  ALA342     -0.1231
    117  CA        -9.2860   -0.5280   12.4330 C.3   342  ALA342      0.1694
    118  C         -9.2350    0.9230   11.9840 C.2   342  ALA342      0.2592
    119  O        -10.2240    1.5200   11.5910 O.2   342  ALA342     -0.2718
    120  CB        -9.3260   -1.4690   11.2630 C.3   342  ALA342      0.0304
    121  N         -8.0430    1.4820   12.0630 N.am  343  GLY343     -0.1957
    122  CA        -7.7450    2.8440   11.6910 C.3   343  GLY343      0.1869
    123  C         -7.8930    3.8340   12.8400 C.2   343  GLY343      0.2309
    124  O         -7.3930    4.9530   12.7550 O.2   343  GLY343     -0.2863
@<TRIPOS>BOND
     1    23    24    1
     2    62    61    2
     3    61    60    1
     4    52    58    1
     5    52    53    1
     6    24    25    1
     7    24    27    1
     8    25    26    2
     9    35    36    1
    10    58    57    1
    11    53    54    1
    12    53    56    1
    13    59    54   am
    14    59    60    1
    15    54    55    2
    16    36    39    1
    17    36    37    1
    18    60    63    1
    19    27    28    1
    20    39    40    1
    21    57    56    1
    22    40    41    1
    23    29    28   ar
    24    29    31   ar
    25    37    38    2
    26    41    42    1
    27    63    64    1
    28    28    30   ar
    29    31    33   ar
    30    15    16    1
    31    17    18    2
    32    17    16    1
    33     3     2    1
    34     3     4    2
    35    44    43    1
    36    16    19    1
    37    64    65   ar
    38    64    66   ar
    39    42    43    2
    40    30    32   ar
    41     2     1    1
    42     2     5    1
    43    33    32   ar
    44    33    34    1
    45    43    45    1
    46    11    13   ar
    47    11     8   ar
    48    13    14   ar
    49     5     6    1
    50    19    20    1
    51     8     6   ar
    52     8    10   ar
    53    14    12   ar
    54     6     7   ar
    55    10    12   ar
    56    10     9   ar
    57    49    48    2
    58     7     9   ar
    59    21    20   ar
    60    20    22   ar
    61    48    47    1
    62    67    68    1
    63    72    73    1
    64    50    47    1
    65    50    51    1
    66    47    46    1
    67    71    68    1
    68    68    69    1
    69    73    76    1
    70    73    74    1
    71    76    77    1
    72    69    70    2
    73   114   113    1
    74    87    86    1
    75    87    81    1
    76    86    85    1
    77    74    81   am
    78    74    75    2
    79   111   112    1
    80   111   110    1
    81    81    82    1
    82    78    77    1
    83    78    79    1
    84   113   112    2
    85   113   115    1
    86    95    94   ar
    87   110   109    1
    88    85    82    1
    89    80    79    1
    90    82    83    1
    91   120   117    1
    92    96    94   ar
    93    94    93    1
    94   109   106    1
    95   119   118    2
    96   122   121    1
    97   122   123    1
    98   100    99    2
    99   106   105    1
   100   106   107    1
   101   118   121   am
   102   118   117    1
   103   103   102   ar
   104    83    84    2
   105   117   116    1
   106   108   107    2
   107    93    92    1
   108    92    89    1
   109   124   123    2
   110    98    99    1
   111    98   101    1
   112    98    97    1
   113   102   101    1
   114   102   104   ar
   115    91    90    2
   116    89    90    1
   117    89    88    1
