@<TRIPOS>MOLECULE
tmp/1oceA00.pdb
 169 169 0 0 0
SMALL
GASTEIGER

@<TRIPOS>ATOM
      1  N         -7.3330   63.9970   66.0850 N.3    67  TYR67      -0.1241
      2  CA        -6.9660   64.1090   67.4830 C.3    67  TYR67       0.1605
      3  C         -6.2870   65.4580   67.6490 C.2    67  TYR67       0.2264
      4  O         -5.2820   65.7430   66.9990 O.2    67  TYR67      -0.2867
      5  CB        -6.0000   62.9840   67.8680 C.3    67  TYR67       0.0534
      6  CG        -5.4200   63.1300   69.2540 C.ar   67  TYR67      -0.0201
      7  CD1       -4.3400   63.9800   69.4930 C.ar   67  TYR67      -0.0009
      8  CD2       -5.9750   62.4520   70.3410 C.ar   67  TYR67      -0.0009
      9  CE1       -3.8300   64.1600   70.7780 C.ar   67  TYR67       0.0417
     10  CE2       -5.4700   62.6260   71.6350 C.ar   67  TYR67       0.0417
     11  CZ        -4.4010   63.4850   71.8440 C.ar   67  TYR67       0.1957
     12  OH        -3.9300   63.7100   73.1170 O.3    67  TYR67      -0.2866
     13  N         -4.3480   68.2860   70.0260 N.3    69  ASP69      -0.1225
     14  CA        -3.4350   68.3570   71.1570 C.3    69  ASP69       0.1805
     15  C         -3.8850   69.3450   72.2440 C.2    69  ASP69       0.2598
     16  O         -4.3950   70.4330   71.9590 O.2    69  ASP69      -0.2718
     17  CB        -2.0450   68.7100   70.6260 C.3    69  ASP69       0.1424
     18  CG        -1.1470   69.3120   71.6730 C.2    69  ASP69       0.3668
     19  OD1       -1.4790   70.4010   72.1970 O.co2  69  ASP69      -0.2456
     20  OD2       -0.0970   68.7000   71.9640 O.co2  69  ASP69      -0.2456
     21  N         -3.6940   68.9460   73.4990 N.am   70  GLU70      -0.1965
     22  CA        -4.0680   69.7700   74.6400 C.3    70  GLU70       0.1733
     23  C         -3.0520   69.6170   75.7650 C.2    70  GLU70       0.2616
     24  O         -3.3830   69.7960   76.9380 O.2    70  GLU70      -0.2715
     25  CB        -5.4520   69.3680   75.1510 C.3    70  GLU70       0.0429
     26  CG        -6.6150   69.9820   74.3920 C.3    70  GLU70       0.1163
     27  CD        -7.8390   69.0850   74.3970 C.2    70  GLU70       0.3649
     28  OE1       -7.6670   67.8470   74.4020 O.co2  70  GLU70      -0.2457
     29  OE2       -8.9710   69.6130   74.3940 O.co2  70  GLU70      -0.2457
     30  N         -1.8180   69.2770   75.4060 N.am   71  GLN71      -0.1977
     31  CA        -0.7630   69.1170   76.3970 C.3    71  GLN71       0.1601
     32  C         -0.1940   70.4710   76.8230 C.2    71  GLN71       0.2287
     33  O          0.4520   70.5850   77.8680 O.2    71  GLN71      -0.2864
     34  CB         0.3610   68.2450   75.8460 C.3    71  GLN71       0.0394
     35  CG         0.4730   66.8930   76.5310 C.3    71  GLN71       0.0908
     36  CD         1.3640   66.9170   77.7640 C.2    71  GLN71       0.2608
     37  OE1        2.2000   66.0300   77.9570 O.2    71  GLN71      -0.2717
     38  NE2        1.1870   67.9310   78.6050 N.am   71  GLN71      -0.0878
     39  N          1.4870   64.7660   60.1510 N.3   115  GLY115     -0.1210
     40  CA         0.6010   64.5860   61.2860 C.3   115  GLY115      0.1956
     41  C          0.6530   63.1880   61.8720 C.2   115  GLY115      0.2612
     42  O         -0.2000   62.8140   62.6740 O.2   115  GLY115     -0.2717
     43  N          1.6640   62.4170   61.4850 N.am  116  GLY116     -0.1956
     44  CA         1.7840   61.0540   61.9710 C.3   116  GLY116      0.1869
     45  C          0.6390   60.2250   61.4180 C.2   116  GLY116      0.2309
     46  O          0.3230   59.1480   61.9340 O.2   116  GLY116     -0.2863
     47  N         -2.1740   60.6310   61.8160 N.3   118  TYR118     -0.1227
     48  CA        -3.2730   60.7240   62.7870 C.3   118  TYR118      0.1736
     49  C         -3.7800   62.1560   62.9230 C.2   118  TYR118      0.2596
     50  O         -4.8230   62.3880   63.5240 O.2   118  TYR118     -0.2718
     51  CB        -2.8360   60.2270   64.1640 C.3   118  TYR118      0.0548
     52  CG        -2.0030   61.2080   64.9610 C.ar  118  TYR118     -0.0200
     53  CD1       -2.6020   62.1810   65.7650 C.ar  118  TYR118     -0.0009
     54  CD2       -0.6060   61.1300   64.9450 C.ar  118  TYR118     -0.0009
     55  CE1       -1.8260   63.0560   66.5450 C.ar  118  TYR118      0.0417
     56  CE2        0.1820   61.9900   65.7130 C.ar  118  TYR118      0.0417
     57  CZ        -0.4290   62.9500   66.5150 C.ar  118  TYR118      0.1957
     58  OH         0.3640   63.7720   67.2950 O.3   118  TYR118     -0.2866
     59  N         -3.0330   63.1020   62.3590 N.am  119  SER119     -0.1952
     60  CA        -3.3770   64.5140   62.4180 C.3   119  SER119      0.1924
     61  C         -2.8700   65.2630   61.1870 C.2   119  SER119      0.2314
     62  O         -2.1890   64.6850   60.3400 O.2   119  SER119     -0.2863
     63  CB        -2.7740   65.1440   63.6850 C.3   119  SER119      0.2116
     64  OG        -1.3560   65.2690   63.6070 O.3   119  SER119     -0.2180
     65  N          7.2940   65.0780   57.4230 N.3   197  SER197     -0.1202
     66  CA         6.9300   63.9170   58.2350 C.3   197  SER197      0.2020
     67  C          6.0960   62.9180   57.4370 C.2   197  SER197      0.2618
     68  O          6.5610   62.3830   56.4400 O.2   197  SER197     -0.2717
     69  CB         6.1600   64.3600   59.4880 C.3   197  SER197      0.2103
     70  OG         6.3550   63.4670   60.5830 O.3   197  SER197     -0.2182
     71  N          4.8650   62.6680   57.8750 N.am  198  ALA198     -0.1979
     72  CA         3.9930   61.7180   57.1890 C.3   198  ALA198      0.1597
     73  C          3.7490   62.1650   55.7620 C.2   198  ALA198      0.2287
     74  O          3.4670   61.3450   54.8910 O.2   198  ALA198     -0.2864
     75  CB         2.6710   61.5830   57.9280 C.3   198  ALA198      0.0319
     76  N          7.3820   54.0130   61.3680 N.3   230  TRP230     -0.1241
     77  CA         6.0680   54.3950   61.8600 C.3   230  TRP230      0.1605
     78  C          5.1790   54.7760   60.7050 C.2   230  TRP230      0.2264
     79  O          4.0230   55.1380   60.9000 O.2   230  TRP230     -0.2867
     80  CB         6.2280   55.6040   62.7510 C.3   230  TRP230      0.0550
     81  CG         7.0680   56.6290   62.0730 C.ar  230  TRP230      0.0003
     82  CD1        8.4170   56.8020   62.1960 C.ar  230  TRP230      0.0946
     83  CD2        6.6180   57.6140   61.1320 C.ar  230  TRP230      0.0152
     84  NE1        8.8380   57.8380   61.3890 N.ar  230  TRP230     -0.2442
     85  CE2        7.7520   58.3520   60.7270 C.ar  230  TRP230      0.0810
     86  CE3        5.3670   57.9430   60.5940 C.ar  230  TRP230      0.0012
     87  CZ2        7.6690   59.3970   59.8110 C.ar  230  TRP230      0.0191
     88  CZ3        5.2870   58.9830   59.6870 C.ar  230  TRP230      0.0001
     89  CH2        6.4310   59.6980   59.3050 C.ar  230  TRP230      0.0015
     90  N         -5.5540   55.7370   70.4350 N.3   276  TRP276     -0.1241
     91  CA        -4.2310   55.2960   70.8620 C.3   276  TRP276      0.1605
     92  C         -4.1610   54.0220   71.6880 C.2   276  TRP276      0.2264
     93  O         -3.0710   53.5360   71.9850 O.2   276  TRP276     -0.2867
     94  CB        -3.5650   56.4110   71.6490 C.3   276  TRP276      0.0550
     95  CG        -3.4880   57.6770   70.8840 C.ar  276  TRP276      0.0003
     96  CD1       -4.3870   58.7030   70.8970 C.ar  276  TRP276      0.0946
     97  CD2       -2.4580   58.0530   69.9670 C.ar  276  TRP276      0.0152
     98  NE1       -3.9770   59.6970   70.0420 N.ar  276  TRP276     -0.2442
     99  CE2       -2.7960   59.3220   69.4590 C.ar  276  TRP276      0.0810
    100  CE3       -1.2810   57.4380   69.5270 C.ar  276  TRP276      0.0012
    101  CZ2       -2.0020   59.9890   68.5320 C.ar  276  TRP276      0.0191
    102  CZ3       -0.4910   58.1000   68.6050 C.ar  276  TRP276      0.0001
    103  CH2       -0.8550   59.3660   68.1170 C.ar  276  TRP276      0.0015
    104  N          7.1100   57.7790   69.0340 N.3   285  PHE285     -0.1241
    105  CA         7.1490   57.9260   67.5760 C.3   285  PHE285      0.1605
    106  C          6.5160   56.7220   66.8930 C.2   285  PHE285      0.2264
    107  O          7.1110   56.1170   66.0060 O.2   285  PHE285     -0.2867
    108  CB         8.5930   58.0980   67.0840 C.3   285  PHE285      0.0534
    109  CG         8.7600   59.1410   66.0040 C.ar  285  PHE285     -0.0203
    110  CD1        7.8100   59.2840   64.9920 C.ar  285  PHE285     -0.0042
    111  CD2        9.8880   59.9630   65.9830 C.ar  285  PHE285     -0.0042
    112  CE1        7.9830   60.2250   63.9790 C.ar  285  PHE285     -0.0003
    113  CE2       10.0700   60.9070   64.9710 C.ar  285  PHE285     -0.0003
    114  CZ         9.1140   61.0350   63.9680 C.ar  285  PHE285     -0.0000
    115  N          2.4110   55.5190   65.6600 N.3   287  PHE287     -0.1241
    116  CA         1.0220   55.9490   65.5560 C.3   287  PHE287      0.1605
    117  C          0.1070   54.7970   65.1950 C.2   287  PHE287      0.2264
    118  O          0.5290   53.8240   64.5750 O.2   287  PHE287     -0.2867
    119  CB         0.9290   57.0930   64.5380 C.3   287  PHE287      0.0534
    120  CG         2.0740   58.0770   64.6420 C.ar  287  PHE287     -0.0203
    121  CD1        2.0140   59.1450   65.5320 C.ar  287  PHE287     -0.0042
    122  CD2        3.2390   57.8970   63.8950 C.ar  287  PHE287     -0.0042
    123  CE1        3.0940   60.0180   65.6880 C.ar  287  PHE287     -0.0003
    124  CE2        4.3290   58.7690   64.0440 C.ar  287  PHE287     -0.0003
    125  CZ         4.2570   59.8310   64.9430 C.ar  287  PHE287     -0.0000
    126  N         10.7630   66.5970   70.0180 N.3   327  PHE327     -0.1227
    127  CA         9.3160   66.6330   70.2060 C.3   327  PHE327      0.1736
    128  C          8.6230   65.4050   70.7900 C.2   327  PHE327      0.2595
    129  O          7.6490   65.5310   71.5420 O.2   327  PHE327     -0.2718
    130  CB         8.6550   66.9870   68.8800 C.3   327  PHE327      0.0547
    131  CG         7.5500   67.9790   69.0080 C.ar  327  PHE327     -0.0202
    132  CD1        6.2470   67.5560   69.2680 C.ar  327  PHE327     -0.0042
    133  CD2        7.8000   69.3410   68.8570 C.ar  327  PHE327     -0.0042
    134  CE1        5.1950   68.4830   69.3750 C.ar  327  PHE327     -0.0003
    135  CE2        6.7660   70.2780   68.9610 C.ar  327  PHE327     -0.0003
    136  CZ         5.4550   69.8470   69.2210 C.ar  327  PHE327     -0.0000
    137  N          9.1200   64.2220   70.4490 N.am  328  PHE328     -0.1976
    138  CA         8.5150   62.9700   70.8980 C.3   328  PHE328      0.1639
    139  C          8.9680   62.5190   72.2650 C.2   328  PHE328      0.2290
    140  O          8.3030   61.7090   72.9080 O.2   328  PHE328     -0.2864
    141  CB         8.7900   61.8850   69.8560 C.3   328  PHE328      0.0560
    142  CG         8.5090   62.3400   68.4610 C.ar  328  PHE328     -0.0200
    143  CD1        9.4490   63.0970   67.7680 C.ar  328  PHE328     -0.0042
    144  CD2        7.2560   62.1380   67.8950 C.ar  328  PHE328     -0.0042
    145  CE1        9.1440   63.6560   66.5470 C.ar  328  PHE328     -0.0003
    146  CE2        6.9400   62.6940   66.6680 C.ar  328  PHE328     -0.0003
    147  CZ         7.8820   63.4570   65.9950 C.ar  328  PHE328     -0.0000
    148  N          7.1290   64.8210   74.7910 N.3   331  TYR331     -0.1241
    149  CA         5.7440   64.3640   74.8360 C.3   331  TYR331      0.1605
    150  C          5.5680   62.9280   75.3220 C.2   331  TYR331      0.2264
    151  O          4.4570   62.5210   75.6350 O.2   331  TYR331     -0.2867
    152  CB         5.1240   64.4790   73.4500 C.3   331  TYR331      0.0534
    153  CG         4.4570   65.7970   73.1770 C.ar  331  TYR331     -0.0201
    154  CD1        5.2060   66.9440   72.9230 C.ar  331  TYR331     -0.0009
    155  CD2        3.0780   65.8980   73.1660 C.ar  331  TYR331     -0.0009
    156  CE1        4.5880   68.1600   72.6650 C.ar  331  TYR331      0.0417
    157  CE2        2.4520   67.1040   72.9100 C.ar  331  TYR331      0.0417
    158  CZ         3.2080   68.2320   72.6590 C.ar  331  TYR331      0.1957
    159  OH         2.5640   69.4200   72.3830 O.3   331  TYR331     -0.2866
    160  N         11.6160   68.9960   64.8880 N.3   437  HIS437     -0.1241
    161  CA        10.8310   68.3660   63.8380 C.3   437  HIS437      0.1621
    162  C          9.7970   69.3630   63.3590 C.2   437  HIS437      0.2264
    163  O          9.0790   69.9450   64.1590 O.2   437  HIS437     -0.2867
    164  CB        10.1220   67.1400   64.4190 C.3   437  HIS437      0.0745
    165  CG         9.5530   66.1970   63.3980 C.ar  437  HIS437      0.0817
    166  ND1       10.3320   65.5300   62.4760 N.ar  437  HIS437     -0.2268
    167  CD2        8.2890   65.7430   63.2140 C.ar  437  HIS437      0.1154
    168  CE1        9.5740   64.7050   61.7720 C.ar  437  HIS437      0.1986
    169  NE2        8.3300   64.8150   62.2010 N.ar  437  HIS437     -0.2212
@<TRIPOS>BOND
     1    74    73    2
     2    73    72    1
     3    68    67    2
     4    72    71    1
     5    72    75    1
     6    65    66    1
     7    67    71   am
     8    67    66    1
     9    66    69    1
    10    89    88   ar
    11    89    87   ar
    12    69    70    1
    13    88    86   ar
    14    87    85   ar
    15    39    40    1
    16    62    61    2
    17    86    83   ar
    18    78    79    2
    19    78    77    1
    20    85    83   ar
    21    85    84   ar
    22    83    81   ar
    23    61    60    1
    24    40    41    1
    25    76    77    1
    26    84    82   ar
    27    45    46    2
    28    45    44    1
    29    43    41   am
    30    43    44    1
    31   168   169   ar
    32   168   166   ar
    33    47    48    1
    34    77    80    1
    35    41    42    2
    36    81    82   ar
    37    81    80    1
    38   169   167   ar
    39    59    60    1
    40    59    49   am
    41    60    63    1
    42   166   165   ar
    43    48    49    1
    44    48    51    1
    45    49    50    2
    46   167   165   ar
    47   162   161    1
    48   162   163    2
    49   165   164    1
    50    64    63    1
    51   161   164    1
    52   161   160    1
    53   122   124   ar
    54   122   120   ar
    55   114   112   ar
    56   114   113   ar
    57   112   110   ar
    58   124   125   ar
    59    51    52    1
    60   119   120    1
    61   119   116    1
    62   118   117    2
    63   120   121   ar
    64   125   123   ar
    65    54    52   ar
    66    54    56   ar
    67    52    53   ar
    68   113   111   ar
    69   110   109   ar
    70   117   116    1
    71   121   123   ar
    72   116   115    1
    73    56    57   ar
    74    53    55   ar
    75   111   109   ar
    76   147   145   ar
    77   147   146   ar
    78   109   108    1
    79   107   106    2
    80     1     2    1
    81    57    55   ar
    82    57    58    1
    83   145   143   ar
    84   146   144   ar
    85   106   105    1
    86     4     3    2
    87   108   105    1
    88     2     3    1
    89     2     5    1
    90   105   104    1
    91   143   142   ar
    92     5     6    1
    93   144   142   ar
    94   103   101   ar
    95   103   102   ar
    96   142   141    1
    97   101    99   ar
    98   102   100   ar
    99   133   135   ar
   100   133   131   ar
   101   130   131    1
   102   130   127    1
   103   135   136   ar
   104   131   132   ar
   105   136   134   ar
   106     6     7   ar
   107     6     8   ar
   108   132   134   ar
   109    99    97   ar
   110    99    98   ar
   111     7     9   ar
   112   100    97   ar
   113   141   138    1
   114    97    95   ar
   115   126   127    1
   116    13    14    1
   117    98    96   ar
   118   127   128    1
   119     8    10   ar
   120    90    91    1
   121   137   128   am
   122   137   138    1
   123    17    14    1
   124    17    18    1
   125     9    11   ar
   126   128   129    2
   127    91    94    1
   128    91    92    1
   129    95    96   ar
   130    95    94    1
   131   138   139    1
   132    14    15    1
   133    10    11   ar
   134    18    20   ar
   135    18    19   ar
   136    92    93    2
   137    11    12    1
   138    16    15    2
   139    15    21   am
   140   139   140    2
   141   159   158    1
   142   158   156   ar
   143   158   157   ar
   144   156   154   ar
   145   157   155   ar
   146   154   153   ar
   147   155   153   ar
   148   153   152    1
   149   152   149    1
   150    21    22    1
   151    26    27    1
   152    26    25    1
   153    29    27   ar
   154    27    28   ar
   155    22    25    1
   156    22    23    1
   157   148   149    1
   158   149   150    1
   159   150   151    2
   160    30    23   am
   161    30    31    1
   162    23    24    2
   163    34    31    1
   164    34    35    1
   165    31    32    1
   166    35    36    1
   167    32    33    2
   168    36    37    2
   169    36    38   am
