@<TRIPOS>MOLECULE
tmp/1ocjA02.pdb
 104 99 0 0 0
SMALL
GASTEIGER

@<TRIPOS>ATOM
      1  N          0.1950   -1.1460   12.2450 N.3    47  TRP47      -0.1241
      2  CA         0.7030   -1.7860   11.0470 C.3    47  TRP47       0.1605
      3  C         -0.3720   -2.2370   10.0650 C.2    47  TRP47       0.2264
      4  O         -1.2640   -2.9930   10.3930 O.2    47  TRP47      -0.2867
      5  CB         1.5330   -2.9920   11.4610 C.3    47  TRP47       0.0550
      6  CG         2.8000   -2.6620   12.1700 C.ar   47  TRP47       0.0003
      7  CD1        2.9850   -1.8540   13.2580 C.ar   47  TRP47       0.0946
      8  CD2        4.0880   -3.1340   11.8060 C.ar   47  TRP47       0.0152
      9  NE1        4.3180   -1.8040   13.5880 N.ar   47  TRP47      -0.2442
     10  CE2        5.0120   -2.6060   12.7350 C.ar   47  TRP47       0.0810
     11  CE3        4.5540   -4.0050   10.8370 C.ar   47  TRP47       0.0012
     12  CZ2        6.3670   -2.8710   12.6700 C.ar   47  TRP47       0.0191
     13  CZ3        5.9210   -4.2750   10.7940 C.ar   47  TRP47       0.0001
     14  CH2        6.8000   -3.7160   11.7140 C.ar   47  TRP47       0.0015
     15  N         -0.1830   -4.4450    7.6680 N.3    49  ASP49      -0.1239
     16  CA         0.6230   -5.5210    7.0850 C.3    49  ASP49       0.1674
     17  C         -0.2100   -6.6230    6.4570 C.2    49  ASP49       0.2266
     18  O          0.3220   -7.6260    5.9980 O.2    49  ASP49      -0.2867
     19  CB         1.6010   -6.0970    8.0920 C.3    49  ASP49       0.1410
     20  CG         0.9330   -6.8110    9.1960 C.2    49  ASP49       0.3668
     21  OD1       -0.2200   -6.4400    9.5900 O.co2  49  ASP49      -0.2456
     22  OD2        1.5420   -7.7790    9.7320 O.co2  49  ASP49      -0.2456
     23  N          2.8640   -2.0140    4.6980 N.3    84  TYR84      -0.1241
     24  CA         3.7120   -3.1920    4.6350 C.3    84  TYR84       0.1605
     25  C          2.9820   -4.3360    3.9630 C.2    84  TYR84       0.2264
     26  O          2.6210   -5.3360    4.5930 O.2    84  TYR84      -0.2867
     27  CB         4.1490   -3.5770    6.0410 C.3    84  TYR84       0.0534
     28  CG         5.1910   -4.6690    6.1670 C.ar   84  TYR84      -0.0201
     29  CD1        6.1150   -4.9420    5.1920 C.ar   84  TYR84      -0.0009
     30  CD2        5.2300   -5.4510    7.2900 C.ar   84  TYR84      -0.0009
     31  CE1        7.0760   -5.9460    5.3780 C.ar   84  TYR84       0.0417
     32  CE2        6.1650   -6.4490    7.4670 C.ar   84  TYR84       0.0417
     33  CZ         7.0820   -6.6800    6.5070 C.ar   84  TYR84       0.1957
     34  OH         7.9860   -7.7120    6.7280 O.3    84  TYR84      -0.2866
     35  N          6.8460  -10.1390   -0.7810 N.3    89  ARG89      -0.1245
     36  CA         7.3510   -9.4390    0.3770 C.3    89  ARG89       0.1563
     37  C          8.4870  -10.2040    1.0100 C.2    89  ARG89       0.2260
     38  O          8.5300  -11.4440    1.0230 O.2    89  ARG89      -0.2867
     39  CB         6.2340   -9.2990    1.4300 C.3    89  ARG89       0.0307
     40  CG         6.2800   -8.0010    2.1770 C.3    89  ARG89       0.0489
     41  CD         5.1340   -7.7900    3.1240 C.3    89  ARG89       0.2205
     42  NE         5.2250   -8.6910    4.2700 N.pl3  89  ARG89      -0.0865
     43  CZ         4.2720   -8.8350    5.1850 C.cat  89  ARG89       0.5346
     44  NH1        3.1600   -8.1600    5.1270 N.pl3  89  ARG89       0.1354
     45  NH2        4.4360   -9.7010    6.1650 N.pl3  89  ARG89       0.1354
     46  N          5.2760  -13.7400    5.8020 N.3    97  ASN97      -0.1240
     47  CA         3.8290  -13.6570    5.9790 C.3    97  ASN97       0.1653
     48  C          3.1220  -12.7480    4.9600 C.2    97  ASN97       0.2266
     49  O          1.9230  -12.4830    5.0840 O.2    97  ASN97      -0.2867
     50  CB         3.5150  -13.1390    7.3930 C.3    97  ASN97       0.1155
     51  CG         4.0140  -14.0570    8.4880 C.2    97  ASN97       0.2627
     52  OD1        4.1430  -15.2530    8.2880 O.2    97  ASN97      -0.2716
     53  ND2        4.3490  -13.4660    9.6340 N.am   97  ASN97      -0.0877
     54  N         11.5530   -2.4800   13.8440 N.3   219  ALA219     -0.1245
     55  CA        11.3580   -3.8020   14.3890 C.3   219  ALA219      0.1562
     56  C         12.6780   -4.5000   14.6850 C.2   219  ALA219      0.2260
     57  O         12.7290   -5.7090   14.7970 O.2   219  ALA219     -0.2867
     58  CB        10.4370   -4.6430   13.4900 C.3   219  ALA219      0.0290
     59  N         16.3550  -11.4570   14.2900 N.3   281  TRP281     -0.1241
     60  CA        15.3340  -10.4470   14.4690 C.3   281  TRP281      0.1605
     61  C         14.1160  -10.8110   15.3000 C.2   281  TRP281      0.2264
     62  O         13.3460   -9.9340   15.6670 O.2   281  TRP281     -0.2867
     63  CB        14.8220  -10.0250   13.0510 C.3   281  TRP281      0.0550
     64  CG        14.2330  -11.1660   12.2380 C.ar  281  TRP281      0.0003
     65  CD1       14.9060  -11.9880   11.4090 C.ar  281  TRP281      0.0946
     66  CD2       12.8760  -11.6120   12.2300 C.ar  281  TRP281      0.0152
     67  NE1       14.0660  -12.9300   10.8630 N.ar  281  TRP281     -0.2442
     68  CE2       12.8120  -12.7300   11.3530 C.ar  281  TRP281      0.0810
     69  CE3       11.6980  -11.1760   12.8380 C.ar  281  TRP281      0.0012
     70  CZ2       11.6260  -13.4020   11.0670 C.ar  281  TRP281      0.0191
     71  CZ3       10.5120  -11.8650   12.5630 C.ar  281  TRP281      0.0001
     72  CH2       10.4940  -12.9700   11.6880 C.ar  281  TRP281      0.0015
     73  N          7.7340   -0.9890   15.9520 N.3   309  LYS309     -0.1245
     74  CA         7.2070   -2.2650   16.4620 C.3   309  LYS309      0.1561
     75  C          6.7440   -2.1150   17.9050 C.2   309  LYS309      0.2260
     76  O          7.5540   -1.7300   18.7410 O.2   309  LYS309     -0.2867
     77  CB         8.2850   -3.3230   16.3890 C.3   309  LYS309      0.0271
     78  CG         7.8980   -4.6820   16.9730 C.3   309  LYS309      0.0035
     79  CD         6.6720   -5.3900   16.2870 C.3   309  LYS309      0.0206
     80  CE         6.2400   -6.5880   17.1140 C.3   309  LYS309      0.1093
     81  NZ         5.2140   -7.3670   16.4020 N.3   309  LYS309     -0.1314
     82  N          3.9660  -10.2210   19.4270 N.3   314  CYS314     -0.1221
     83  CA         4.9000  -11.2180   18.9810 C.3   314  CYS314      0.1808
     84  C          5.3820  -10.9410   17.5690 C.2   314  CYS314      0.2601
     85  O          4.6270  -10.3660   16.7900 O.2   314  CYS314     -0.2717
     86  CB         4.2390  -12.5880   18.9890 C.3   314  CYS314      0.0970
     87  SG         5.4400  -13.8930   18.8740 S.3   314  CYS314     -0.0800
     88  N          6.6110  -11.3240   17.2720 N.am  315  ASP315     -0.1973
     89  CA         7.1600  -11.2030   15.9190 C.3   315  ASP315      0.1709
     90  C          6.8450  -12.4040   15.0530 C.2   315  ASP315      0.2293
     91  O          6.9930  -12.3700   13.8480 O.2   315  ASP315     -0.2864
     92  CB         8.6880  -11.0930   15.9490 C.3   315  ASP315      0.1436
     93  CG         9.1940   -9.8340   16.5780 C.2   315  ASP315      0.3671
     94  OD1        8.6210   -8.7320   16.3660 O.co2 315  ASP315     -0.2456
     95  OD2       10.2270   -9.8430   17.3200 O.co2 315  ASP315     -0.2456
     96  N          2.4120  -14.3400   15.0960 N.3   341  ALA341     -0.1231
     97  CA         2.7850  -12.9300   14.8500 C.3   341  ALA341      0.1694
     98  C          1.6580  -11.9670   15.1860 C.2   341  ALA341      0.2592
     99  O          0.4940  -12.1860   14.7850 O.2   341  ALA341     -0.2718
    100  CB         3.1740  -12.7610   13.3930 C.3   341  ALA341      0.0304
    101  N          1.9740  -10.9160   15.9120 N.am  342  GLY342     -0.1957
    102  CA         1.0110   -9.8960   16.2880 C.3   342  GLY342      0.1869
    103  C          0.2260  -10.1850   17.5500 C.2   342  GLY342      0.2309
    104  O         -0.2820   -9.2700   18.1690 O.2   342  GLY342     -0.2863
@<TRIPOS>BOND
     1    35    36    1
     2    36    37    1
     3    36    39    1
     4    37    38    2
     5    39    40    1
     6    40    41    1
     7    41    42    1
     8    25    26    2
     9    25    24    1
    10    42    43    2
    11    24    23    1
    12    24    27    1
    13    48    49    2
    14    48    47    1
    15    44    43    1
    16    43    45    1
    17    29    31   ar
    18    29    28   ar
    19    31    33   ar
    20    46    47    1
    21    47    50    1
    22    18    17    2
    23    27    28    1
    24    28    30   ar
    25    17    16    1
    26    33    34    1
    27    33    32   ar
    28    16    15    1
    29    16    19    1
    30    30    32   ar
    31    50    51    1
    32    19    20    1
    33    52    51    2
    34    51    53   am
    35    20    21   ar
    36    20    22   ar
    37     3     4    2
    38     3     2    1
    39    13    11   ar
    40    13    14   ar
    41    11     8   ar
    42    67    68   ar
    43    67    65   ar
    44     2     5    1
    45     2     1    1
    46    70    68   ar
    47    70    72   ar
    48    68    66   ar
    49    65    64   ar
    50     5     6    1
    51    72    71   ar
    52    14    12   ar
    53     8     6   ar
    54     8    10   ar
    55     6     7   ar
    56    66    64   ar
    57    66    69   ar
    58    64    63    1
    59    71    69   ar
    60    12    10   ar
    61    10     9   ar
    62    63    60    1
    63     7     9   ar
    64   100    97    1
    65    58    55    1
    66    54    55    1
    67    91    90    2
    68    59    60    1
    69    55    56    1
    70    60    61    1
    71    56    57    2
    72    99    98    2
    73    97    96    1
    74    97    98    1
    75    90    89    1
    76    98   101   am
    77    61    62    2
    78   101   102    1
    79    89    92    1
    80    89    88    1
    81    92    93    1
    82    73    74    1
    83    79    78    1
    84    79    80    1
    85   102   103    1
    86    94    93   ar
    87    77    74    1
    88    77    78    1
    89    81    80    1
    90    74    75    1
    91    93    95   ar
    92    85    84    2
    93    88    84   am
    94   103   104    2
    95    84    83    1
    96    75    76    2
    97    87    86    1
    98    83    86    1
    99    83    82    1
