@<TRIPOS>MOLECULE
tmp/1ocjA01.pdb
 132 127 0 0 0
SMALL
GASTEIGER

@<TRIPOS>ATOM
      1  N         -5.8050   -0.3190   21.2710 N.3    14  TYR14      -0.1241
      2  CA        -5.5380   -1.7350   21.1650 C.3    14  TYR14       0.1605
      3  C         -4.3350   -2.1280   22.0400 C.2    14  TYR14       0.2264
      4  O         -4.4170   -3.0940   22.8100 O.2    14  TYR14      -0.2867
      5  CB        -5.3420   -2.1160   19.6960 C.3    14  TYR14       0.0534
      6  CG        -5.0990   -3.5740   19.4600 C.ar   14  TYR14      -0.0201
      7  CD1       -6.1600   -4.4720   19.3690 C.ar   14  TYR14      -0.0009
      8  CD2       -3.8050   -4.0660   19.3310 C.ar   14  TYR14      -0.0009
      9  CE1       -5.9400   -5.8170   19.1500 C.ar   14  TYR14       0.0417
     10  CE2       -3.5790   -5.4030   19.1060 C.ar   14  TYR14       0.0417
     11  CZ        -4.6410   -6.2770   19.0240 C.ar   14  TYR14       0.1957
     12  OH        -4.4170   -7.5990   18.8010 O.3    14  TYR14      -0.2866
     13  N          0.1950   -1.1460   12.2450 N.3    47  TRP47      -0.1241
     14  CA         0.7030   -1.7860   11.0470 C.3    47  TRP47       0.1605
     15  C         -0.3720   -2.2370   10.0650 C.2    47  TRP47       0.2264
     16  O         -1.2640   -2.9930   10.3930 O.2    47  TRP47      -0.2867
     17  CB         1.5330   -2.9920   11.4610 C.3    47  TRP47       0.0550
     18  CG         2.8000   -2.6620   12.1700 C.ar   47  TRP47       0.0003
     19  CD1        2.9850   -1.8540   13.2580 C.ar   47  TRP47       0.0946
     20  CD2        4.0880   -3.1340   11.8060 C.ar   47  TRP47       0.0152
     21  NE1        4.3180   -1.8040   13.5880 N.ar   47  TRP47      -0.2442
     22  CE2        5.0120   -2.6060   12.7350 C.ar   47  TRP47       0.0810
     23  CE3        4.5540   -4.0050   10.8370 C.ar   47  TRP47       0.0012
     24  CZ2        6.3670   -2.8710   12.6700 C.ar   47  TRP47       0.0191
     25  CZ3        5.9210   -4.2750   10.7940 C.ar   47  TRP47       0.0001
     26  CH2        6.8000   -3.7160   11.7140 C.ar   47  TRP47       0.0015
     27  N         -0.1830   -4.4450    7.6680 N.3    49  ASP49      -0.1225
     28  CA         0.6230   -5.5210    7.0850 C.3    49  ASP49       0.1805
     29  C         -0.2100   -6.6230    6.4570 C.2    49  ASP49       0.2597
     30  O          0.3220   -7.6260    5.9980 O.2    49  ASP49      -0.2718
     31  CB         1.6010   -6.0970    8.0920 C.3    49  ASP49       0.1424
     32  CG         0.9330   -6.8110    9.1960 C.2    49  ASP49       0.3668
     33  OD1       -0.2200   -6.4400    9.5900 O.co2  49  ASP49      -0.2456
     34  OD2        1.5420   -7.7790    9.7320 O.co2  49  ASP49      -0.2456
     35  N         -1.5220   -6.4590    6.4720 N.am   50  ARG50      -0.1979
     36  CA        -2.4750   -7.2820    5.7520 C.3    50  ARG50       0.1597
     37  C         -3.5280   -6.3730    5.1390 C.2    50  ARG50       0.2287
     38  O         -3.8880   -5.3680    5.7370 O.2    50  ARG50      -0.2864
     39  CB        -3.2010   -8.2630    6.6950 C.3    50  ARG50       0.0334
     40  CG        -2.3260   -9.2820    7.3400 C.3    50  ARG50       0.0492
     41  CD        -3.0680  -10.0810    8.4100 C.3    50  ARG50       0.2205
     42  NE        -3.6170   -9.2470    9.4910 N.pl3  50  ARG50      -0.0865
     43  CZ        -4.8180   -9.4050   10.0700 C.cat  50  ARG50       0.5346
     44  NH1       -5.6680  -10.3650    9.6830 N.pl3  50  ARG50       0.1354
     45  NH2       -5.1790   -8.5840   11.0620 N.pl3  50  ARG50       0.1354
     46  N         -8.6060   -1.3240   10.8220 N.3    57  LEU57      -0.1245
     47  CA        -7.7150   -0.6230   11.7060 C.3    57  LEU57       0.1561
     48  C         -7.4260    0.8130   11.2890 C.2    57  LEU57       0.2260
     49  O         -7.4400    1.7200   12.1120 O.2    57  LEU57      -0.2867
     50  CB        -6.3950   -1.3990   11.7680 C.3    57  LEU57       0.0270
     51  CG        -5.3190   -0.9320   12.7370 C.3    57  LEU57       0.0019
     52  CD1       -5.8170   -1.0090   14.1580 C.3    57  LEU57       0.0001
     53  CD2       -4.0750   -1.8120   12.5400 C.3    57  LEU57       0.0001
     54  N          2.8640   -2.0140    4.6980 N.3    84  TYR84      -0.1241
     55  CA         3.7120   -3.1920    4.6350 C.3    84  TYR84       0.1605
     56  C          2.9820   -4.3360    3.9630 C.2    84  TYR84       0.2264
     57  O          2.6210   -5.3360    4.5930 O.2    84  TYR84      -0.2867
     58  CB         4.1490   -3.5770    6.0410 C.3    84  TYR84       0.0534
     59  CG         5.1910   -4.6690    6.1670 C.ar   84  TYR84      -0.0201
     60  CD1        6.1150   -4.9420    5.1920 C.ar   84  TYR84      -0.0009
     61  CD2        5.2300   -5.4510    7.2900 C.ar   84  TYR84      -0.0009
     62  CE1        7.0760   -5.9460    5.3780 C.ar   84  TYR84       0.0417
     63  CE2        6.1650   -6.4490    7.4670 C.ar   84  TYR84       0.0417
     64  CZ         7.0820   -6.6800    6.5070 C.ar   84  TYR84       0.1957
     65  OH         7.9860   -7.7120    6.7280 O.3    84  TYR84      -0.2866
     66  N          5.2760  -13.7400    5.8020 N.3    97  ASN97      -0.1240
     67  CA         3.8290  -13.6570    5.9790 C.3    97  ASN97       0.1653
     68  C          3.1220  -12.7480    4.9600 C.2    97  ASN97       0.2266
     69  O          1.9230  -12.4830    5.0840 O.2    97  ASN97      -0.2867
     70  CB         3.5150  -13.1390    7.3930 C.3    97  ASN97       0.1155
     71  CG         4.0140  -14.0570    8.4880 C.2    97  ASN97       0.2627
     72  OD1        4.1430  -15.2530    8.2880 O.2    97  ASN97      -0.2716
     73  ND2        4.3490  -13.4660    9.6340 N.am   97  ASN97      -0.0877
     74  N          7.7340   -0.9890   15.9520 N.3   309  LYS309     -0.1231
     75  CA         7.2070   -2.2650   16.4620 C.3   309  LYS309      0.1678
     76  C          6.7440   -2.1150   17.9050 C.2   309  LYS309      0.2434
     77  O          7.5540   -1.7300   18.7410 O.2   309  LYS309     -0.2733
     78  CB         8.2850   -3.3230   16.3890 C.3   309  LYS309      0.0284
     79  CG         7.8980   -4.6820   16.9730 C.3   309  LYS309      0.0035
     80  CD         6.6720   -5.3900   16.2870 C.3   309  LYS309      0.0206
     81  CE         6.2400   -6.5880   17.1140 C.3   309  LYS309      0.1093
     82  NZ         5.2140   -7.3670   16.4020 N.3   309  LYS309     -0.1314
     83  N          5.4570   -2.3920   18.2170 N.am  310  PRO310     -0.2729
     84  CA         5.0040   -2.2960   19.6120 C.3   310  PRO310      0.1401
     85  C          5.4720   -3.4830   20.4240 C.2   310  PRO310      0.2269
     86  O          5.1030   -4.6150   20.2000 O.2   310  PRO310     -0.2865
     87  CB         3.4830   -2.2730   19.4970 C.3   310  PRO310      0.0296
     88  CG         3.2480   -1.9790   18.0480 C.3   310  PRO310      0.0237
     89  CD         4.3100   -2.6660   17.3280 C.3   310  PRO310      0.0939
     90  N          3.9750   -7.3580   21.3550 N.3   313  GLU313     -0.1231
     91  CA         3.2670   -8.0430   20.2810 C.3   313  GLU313      0.1699
     92  C          4.2860   -8.9420   19.5820 C.2   313  GLU313      0.2592
     93  O          5.3940   -8.4810   19.2330 O.2   313  GLU313     -0.2718
     94  CB         2.5980   -7.0070   19.3380 C.3   313  GLU313      0.0402
     95  CG         1.5100   -6.2140   20.0600 C.3   313  GLU313      0.1161
     96  CD         0.7540   -5.2230   19.1880 C.2   313  GLU313      0.3649
     97  OE1        1.0550   -5.1980   17.9630 O.co2 313  GLU313     -0.2457
     98  OE2       -0.1170   -4.4660   19.7230 O.co2 313  GLU313     -0.2457
     99  N          3.9660  -10.2210   19.4270 N.am  314  CYS314     -0.1956
    100  CA         4.9000  -11.2180   18.9810 C.3   314  CYS314      0.1843
    101  C          5.3820  -10.9410   17.5690 C.2   314  CYS314      0.2625
    102  O          4.6270  -10.3660   16.7900 O.2   314  CYS314     -0.2714
    103  CB         4.2390  -12.5880   18.9890 C.3   314  CYS314      0.0997
    104  SG         5.4400  -13.8930   18.8740 S.3   314  CYS314     -0.0797
    105  N          6.6110  -11.3240   17.2720 N.am  315  ASP315     -0.1971
    106  CA         7.1600  -11.2030   15.9190 C.3   315  ASP315      0.1709
    107  C          6.8450  -12.4040   15.0530 C.2   315  ASP315      0.2293
    108  O          6.9930  -12.3700   13.8480 O.2   315  ASP315     -0.2864
    109  CB         8.6880  -11.0930   15.9490 C.3   315  ASP315      0.1436
    110  CG         9.1940   -9.8340   16.5780 C.2   315  ASP315      0.3671
    111  OD1        8.6210   -8.7320   16.3660 O.co2 315  ASP315     -0.2456
    112  OD2       10.2270   -9.8430   17.3200 O.co2 315  ASP315     -0.2456
    113  N          3.2160  -20.8790    9.0560 N.3   324  ARG324     -0.1245
    114  CA         3.8870  -19.5600    9.0000 C.3   324  ARG324      0.1563
    115  C          5.1690  -19.4830    9.8140 C.2   324  ARG324      0.2260
    116  O          5.7560  -18.3900    9.9650 O.2   324  ARG324     -0.2867
    117  CB         2.9490  -18.4810    9.4890 C.3   324  ARG324      0.0307
    118  CG         1.7830  -18.1950    8.5550 C.3   324  ARG324      0.0489
    119  CD         0.6550  -17.3440    9.1380 C.3   324  ARG324      0.2205
    120  NE         1.0320  -16.4750   10.2520 N.pl3 324  ARG324     -0.0865
    121  CZ         0.2110  -15.6070   10.8430 C.cat 324  ARG324      0.5346
    122  NH1       -1.0470  -15.4410   10.4210 N.pl3 324  ARG324      0.1354
    123  NH2        0.6490  -14.8770   11.8500 N.pl3 324  ARG324      0.1354
    124  N          2.4120  -14.3400   15.0960 N.3   341  ALA341     -0.1231
    125  CA         2.7850  -12.9300   14.8500 C.3   341  ALA341      0.1694
    126  C          1.6580  -11.9670   15.1860 C.2   341  ALA341      0.2592
    127  O          0.4940  -12.1860   14.7850 O.2   341  ALA341     -0.2718
    128  CB         3.1740  -12.7610   13.3930 C.3   341  ALA341      0.0304
    129  N          1.9740  -10.9160   15.9120 N.am  342  GLY342     -0.1957
    130  CA         1.0110   -9.8960   16.2880 C.3   342  GLY342      0.1869
    131  C          0.2260  -10.1850   17.5500 C.2   342  GLY342      0.2309
    132  O         -0.2820   -9.2700   18.1690 O.2   342  GLY342     -0.2863
@<TRIPOS>BOND
     1    56    57    2
     2    56    55    1
     3    55    54    1
     4    55    58    1
     5    68    69    2
     6    68    67    1
     7    37    38    2
     8    37    36    1
     9    60    62   ar
    10    60    59   ar
    11    62    64   ar
    12    36    35    1
    13    36    39    1
    14    66    67    1
    15    67    70    1
    16    30    29    2
    17    58    59    1
    18    59    61   ar
    19    29    35   am
    20    29    28    1
    21    64    65    1
    22    64    63   ar
    23    39    40    1
    24    28    27    1
    25    28    31    1
    26    61    63   ar
    27    40    41    1
    28    70    71    1
    29    31    32    1
    30    72    71    2
    31    41    42    1
    32    71    73   am
    33   118   119    1
    34   118   117    1
    35   114   113    1
    36   114   117    1
    37   114   115    1
    38   119   120    1
    39    32    33   ar
    40    32    34   ar
    41    42    43    2
    42    44    43    1
    43   115   116    2
    44    15    16    2
    45    15    14    1
    46    43    45    1
    47   120   121    2
    48   122   121    1
    49    25    23   ar
    50    25    26   ar
    51    46    47    1
    52    23    20   ar
    53   121   123    1
    54    14    17    1
    55    14    13    1
    56    48    47    1
    57    48    49    2
    58    17    18    1
    59    47    50    1
    60    26    24   ar
    61    50    51    1
    62    20    18   ar
    63    20    22   ar
    64    18    19   ar
    65    53    51    1
    66    24    22   ar
    67    22    21   ar
    68    51    52    1
    69    19    21   ar
    70   128   125    1
    71   108   107    2
    72   127   126    2
    73   125   124    1
    74   125   126    1
    75   107   106    1
    76   126   129   am
    77   129   130    1
    78   106   109    1
    79   106   105    1
    80   109   110    1
    81    74    75    1
    82    80    79    1
    83    80    81    1
    84   130   131    1
    85   111   110   ar
    86    78    75    1
    87    78    79    1
    88    82    81    1
    89    75    76    1
    90   110   112   ar
    91   102   101    2
    92   105   101   am
    93    89    88    1
    94    89    83    1
    95   131   132    2
    96   101   100    1
    97    76    83   am
    98    76    77    2
    99    97    96   ar
   100    88    87    1
   101    83    84    1
   102    12    11    1
   103   104   103    1
   104   100   103    1
   105   100    99    1
   106    11    10   ar
   107    11     9   ar
   108    10     8   ar
   109     9     7   ar
   110    96    98   ar
   111    96    95    1
   112    93    92    2
   113     8     6   ar
   114    94    95    1
   115    94    91    1
   116     7     6   ar
   117    99    92   am
   118     6     5    1
   119    87    84    1
   120    92    91    1
   121    84    85    1
   122     5     2    1
   123    86    85    2
   124    91    90    1
   125     2     1    1
   126     2     3    1
   127     3     4    2
