@<TRIPOS>MOLECULE
tmp/1ocmB00.pdb
 103 95 0 0 0
SMALL
GASTEIGER

@<TRIPOS>ATOM
      1  N         21.6310   25.5950   38.5160 N.3    62  LYS62      -0.1245
      2  CA        22.7640   25.0190   37.7670 C.3    62  LYS62       0.1561
      3  C         23.1090   25.9360   36.5970 C.2    62  LYS62       0.2260
      4  O         22.2520   26.3770   35.9060 O.2    62  LYS62      -0.2867
      5  CB        22.3980   23.6230   37.2610 C.3    62  LYS62       0.0271
      6  CG        23.5240   22.8850   36.5620 C.3    62  LYS62       0.0035
      7  CD        23.0960   21.4630   36.2620 C.3    62  LYS62       0.0206
      8  CE        24.1680   20.6820   35.5290 C.3    62  LYS62       0.1093
      9  NZ        23.6990   19.2900   35.2860 N.3    62  LYS62      -0.1314
     10  N         27.7860   20.1280   30.9410 N.3   111  ALA111     -0.1231
     11  CA        27.1930   19.0330   31.6950 C.3   111  ALA111      0.1694
     12  C         27.7630   17.6650   31.3680 C.2   111  ALA111      0.2593
     13  O         27.0680   16.7050   31.3670 O.2   111  ALA111     -0.2718
     14  CB        25.6780   19.0220   31.4810 C.3   111  ALA111      0.0304
     15  N         29.0630   17.6070   31.1030 N.am  112  SER112     -0.1938
     16  CA        29.7030   16.3410   30.7890 C.3   112  SER112      0.2055
     17  C         30.5770   15.7970   31.9360 C.2   112  SER112      0.2642
     18  O         30.3100   16.0460   33.0630 O.2   112  SER112     -0.2714
     19  CB        30.5340   16.4660   29.5080 C.3   112  SER112      0.2130
     20  OG        30.8920   15.1790   29.0340 O.3   112  SER112     -0.2179
     21  N         31.6420   15.0710   31.5800 N.am  113  ARG113     -0.1977
     22  CA        32.5540   14.4100   32.5410 C.3   113  ARG113      0.1597
     23  C         33.6410   15.2510   33.2090 C.2   113  ARG113      0.2287
     24  O         34.1360   14.8960   34.2360 O.2   113  ARG113     -0.2864
     25  CB        33.2330   13.2190   31.8590 C.3   113  ARG113      0.0334
     26  CG        32.2600   12.1720   31.3920 C.3   113  ARG113      0.0492
     27  CD        31.3650   11.7460   32.5410 C.3   113  ARG113      0.2205
     28  NE        30.4290   10.7140   32.1250 N.pl3 113  ARG113     -0.0865
     29  CZ        29.5480   10.1390   32.9330 C.cat 113  ARG113      0.5346
     30  NH1       29.4780   10.4990   34.2110 N.pl3 113  ARG113      0.1354
     31  NH2       28.7410    9.1970   32.4580 N.pl3 113  ARG113      0.1354
     32  N         28.5350   14.7540   39.6830 N.3   130  GLY130     -0.1210
     33  CA        28.2970   15.6420   38.5570 C.3   130  GLY130      0.1956
     34  C         27.1550   15.1030   37.7160 C.2   130  GLY130      0.2612
     35  O         26.6820   14.0360   37.9780 O.2   130  GLY130     -0.2717
     36  N         26.7140   15.8560   36.7070 N.am  131  SER131     -0.1952
     37  CA        27.2740   17.1670   36.3540 C.3   131  SER131      0.1924
     38  C         26.7000   18.3200   37.1770 C.2   131  SER131      0.2314
     39  O         27.1920   19.4020   37.1360 O.2   131  SER131     -0.2863
     40  CB        27.0430   17.4380   34.8640 C.3   131  SER131      0.2116
     41  OG        25.6640   17.3520   34.5430 O.3   131  SER131     -0.2180
     42  N         20.1050   19.1580   36.3460 N.3   150  THR150     -0.1218
     43  CA        19.6250   18.4440   35.1700 C.3   150  THR150      0.1862
     44  C         20.2030   17.0510   35.1200 C.2   150  THR150      0.2287
     45  O         21.2120   16.7830   35.6940 O.2   150  THR150     -0.2866
     46  CB        20.0240   19.1420   33.8470 C.3   150  THR150      0.1770
     47  OG1       21.4510   19.1880   33.7450 O.3   150  THR150     -0.2211
     48  CG2       19.4580   20.5490   33.7780 C.3   150  THR150      0.0375
     49  N         20.8720   13.7460   32.3060 N.3   152  THR152     -0.1203
     50  CA        20.9020   13.1510   30.9760 C.3   152  THR152      0.1994
     51  C         21.3570   11.7060   31.1130 C.2   152  THR152      0.2618
     52  O         20.9310   10.8340   30.4250 O.2   152  THR152     -0.2717
     53  CB        21.8570   13.9330   30.0660 C.3   152  THR152      0.1784
     54  OG1       21.4050   15.2910   29.9810 O.3   152  THR152     -0.2211
     55  CG2       21.9000   13.3270   28.6710 C.3   152  THR152      0.0376
     56  N         22.2530   11.5160   32.0810 N.am  153  GLY153     -0.1942
     57  CA        22.7750   10.2080   32.4280 C.3   153  GLY153      0.2014
     58  C         22.2980    9.9960   33.8540 C.2   153  GLY153      0.2639
     59  O         21.3930    9.2590   34.0840 O.2   153  GLY153     -0.2714
     60  N         22.9270   10.7000   34.7990 N.am  154  GLY154     -0.1939
     61  CA        22.5450   10.6060   36.2030 C.3   154  GLY154      0.2014
     62  C         23.0070   11.8080   37.0210 C.2   154  GLY154      0.2639
     63  O         23.2270   11.7060   38.1810 O.2   154  GLY154     -0.2714
     64  N         23.0970   12.9680   36.3790 N.am  155  SER155     -0.1949
     65  CA        23.6010   14.1880   37.0410 C.3   155  SER155      0.1924
     66  C         22.6430   14.7560   38.0850 C.2   155  SER155      0.2314
     67  O         22.9090   15.7810   38.6260 O.2   155  SER155     -0.2863
     68  CB        23.9220   15.2030   35.9470 C.3   155  SER155      0.2116
     69  OG        24.8900   14.5370   35.1360 O.3   155  SER155     -0.2180
     70  N         22.7900   10.8770   41.1040 N.3   158  ARG158     -0.1245
     71  CA        24.1540   10.5470   41.5550 C.3   158  ARG158      0.1563
     72  C         24.7720   11.5820   42.4990 C.2   158  ARG158      0.2260
     73  O         25.2150   11.2530   43.5570 O.2   158  ARG158     -0.2867
     74  CB        25.0850   10.3180   40.3530 C.3   158  ARG158      0.0307
     75  CG        26.4540    9.7790   40.7600 C.3   158  ARG158      0.0489
     76  CD        27.2840    9.2790   39.5810 C.3   158  ARG158      0.2205
     77  NE        28.0110   10.3230   38.8520 N.pl3 158  ARG158     -0.0865
     78  CZ        27.5510   10.9630   37.7760 C.cat 158  ARG158      0.5346
     79  NH1       26.3460   10.6870   37.2860 N.pl3 158  ARG158      0.1354
     80  NH2       28.3170   11.8530   37.1600 N.pl3 158  ARG158      0.1354
     81  N         22.6220    9.3840   23.5020 N.3   277  GLN277     -0.1245
     82  CA        23.2680   10.5340   24.1140 C.3   277  GLN277      0.1566
     83  C         24.3870   11.1210   23.2700 C.2   277  GLN277      0.2260
     84  O         24.4550   12.2870   23.0730 O.2   277  GLN277     -0.2867
     85  CB        23.8310   10.1580   25.4860 C.3   277  GLN277      0.0367
     86  CG        24.5420   11.3110   26.1930 C.3   277  GLN277      0.0905
     87  CD        25.2790   10.8660   27.4430 C.2   277  GLN277      0.2608
     88  OE1       26.2750   10.2130   27.3700 O.2   277  GLN277     -0.2717
     89  NE2       24.7510   11.2310   28.5990 N.am  277  GLN277     -0.0878
     90  N         33.5880   12.2660   38.2770 N.3   356  THR356     -0.1218
     91  CA        32.3530   12.6690   38.9400 C.3   356  THR356      0.1862
     92  C         31.4930   11.4650   39.2770 C.2   356  THR356      0.2287
     93  O         30.4020   11.5780   39.7550 O.2   356  THR356     -0.2866
     94  CB        31.5380   13.6180   38.0540 C.3   356  THR356      0.1770
     95  OG1       31.2720   12.9820   36.7970 O.3   356  THR356     -0.2211
     96  CG2       32.3090   14.9170   37.8200 C.3   356  THR356      0.0375
     97  N         27.6010    6.9660   36.0320 N.3   359  PRO359     -0.2116
     98  CA        26.1340    7.0100   36.0550 C.3   359  PRO359      0.1372
     99  C         25.4540    5.7530   35.5220 C.2   359  PRO359      0.2244
    100  O         24.3050    5.7650   35.2170 O.2   359  PRO359     -0.2868
    101  CB        25.8180    8.2310   35.1980 C.3   359  PRO359      0.0268
    102  CG        26.8580    8.1290   34.1240 C.3   359  PRO359      0.0207
    103  CD        28.1300    7.7380   34.8910 C.3   359  PRO359      0.0892
@<TRIPOS>BOND
     1    84    83    2
     2    83    82    1
     3    81    82    1
     4    82    85    1
     5    85    86    1
     6    86    87    1
     7    88    87    2
     8    87    89   am
     9    55    53    1
    10    20    19    1
    11    19    16    1
    12    54    53    1
    13    53    50    1
    14    52    51    2
    15    16    15    1
    16    16    17    1
    17    10    11    1
    18    50    51    1
    19    50    49    1
    20    15    12   am
    21    51    56   am
    22    13    12    2
    23    12    11    1
    24    26    25    1
    25    26    27    1
    26    14    11    1
    27    21    17   am
    28    21    22    1
    29    25    22    1
    30    17    18    2
    31    56    57    1
    32    28    27    1
    33    28    29    2
    34    57    58    1
    35    31    29    1
    36    22    23    1
    37    29    30    1
    38    23    24    2
    39    47    46    1
    40    48    46    1
    41    46    43    1
    42    58    59    2
    43    58    60   am
    44   102   103    1
    45   102   101    1
    46    41    40    1
    47    60    61    1
    48    40    37    1
    49   103    97    1
    50    44    43    1
    51    44    45    2
    52    69    68    1
    53    43    42    1
    54   101    98    1
    55   100    99    2
    56     9     8    1
    57    99    98    1
    58     8     7    1
    59     4     3    2
    60    68    65    1
    61    97    98    1
    62    61    62    1
    63     7     6    1
    64    37    36    1
    65    37    38    1
    66    64    62   am
    67    64    65    1
    68     6     5    1
    69     3     2    1
    70    36    34   am
    71    95    94    1
    72    62    63    2
    73    65    66    1
    74    39    38    2
    75    80    78    1
    76     5     2    1
    77    79    78    1
    78    34    35    2
    79    34    33    1
    80     2     1    1
    81    78    77    2
    82    96    94    1
    83    94    91    1
    84    66    67    2
    85    90    91    1
    86    33    32    1
    87    77    76    1
    88    91    92    1
    89    92    93    2
    90    76    75    1
    91    74    75    1
    92    74    71    1
    93    70    71    1
    94    71    72    1
    95    72    73    2
