@<TRIPOS>MOLECULE
tmp/1ocnA01.pdb
 118 114 0 0 0
SMALL
GASTEIGER

@<TRIPOS>ATOM
      1  N          2.0920   -0.8210   11.7320 N.3    47  TRP47      -0.1241
      2  CA         2.3610   -1.5170   10.4860 C.3    47  TRP47       0.1605
      3  C          1.0820   -1.9840    9.7910 C.2    47  TRP47       0.2264
      4  O          0.2690   -2.6810   10.3690 O.2    47  TRP47      -0.2867
      5  CB         3.2730   -2.7220   10.7430 C.3    47  TRP47       0.0550
      6  CG         4.6790   -2.3310   11.1540 C.ar   47  TRP47       0.0003
      7  CD1        5.0520   -1.6140   12.2570 C.ar   47  TRP47       0.0946
      8  CD2        5.8650   -2.6620   10.4670 C.ar   47  TRP47       0.0152
      9  NE1        6.4230   -1.5050   12.3130 N.ar   47  TRP47      -0.2442
     10  CE2        6.9490   -2.1310   11.2140 C.ar   47  TRP47       0.0810
     11  CE3        6.1370   -3.3790    9.3060 C.ar   47  TRP47       0.0012
     12  CZ2        8.2640   -2.3360   10.8560 C.ar   47  TRP47       0.0191
     13  CZ3        7.4680   -3.5650    8.9330 C.ar   47  TRP47       0.0001
     14  CH2        8.5100   -3.0240    9.6920 C.ar   47  TRP47       0.0015
     15  N          3.6490   -2.1110    4.3030 N.3    84  TYR84      -0.1241
     16  CA         4.4360   -3.3350    4.2810 C.3    84  TYR84       0.1605
     17  C          3.6090   -4.4990    3.7900 C.2    84  TYR84       0.2264
     18  O          3.2660   -5.3710    4.5600 O.2    84  TYR84      -0.2867
     19  CB         5.0360   -3.5910    5.6640 C.3    84  TYR84       0.0534
     20  CG         5.9900   -4.7770    5.7210 C.ar   84  TYR84      -0.0201
     21  CD1        7.1690   -4.7800    4.9910 C.ar   84  TYR84      -0.0009
     22  CD2        5.7310   -5.8690    6.5410 C.ar   84  TYR84      -0.0009
     23  CE1        8.0200   -5.8090    5.0140 C.ar   84  TYR84       0.0417
     24  CE2        6.6430   -6.9390    6.5700 C.ar   84  TYR84       0.0417
     25  CZ         7.7840   -6.9140    5.8420 C.ar   84  TYR84       0.1957
     26  OH         8.6390   -8.0040    5.8600 O.3    84  TYR84      -0.2866
     27  N          9.5200   -9.8050    1.4510 N.3    90  ASP90      -0.1239
     28  CA        10.6300  -10.3830    2.2300 C.3    90  ASP90       0.1674
     29  C         11.3430  -11.4350    1.3920 C.2    90  ASP90       0.2266
     30  O         11.5860  -12.5580    1.8160 O.2    90  ASP90      -0.2867
     31  CB        10.1220  -10.9190    3.5690 C.3    90  ASP90       0.1410
     32  CG        11.1990  -11.1650    4.5660 C.2    90  ASP90       0.3668
     33  OD1       12.1780  -10.4050    4.6660 O.co2  90  ASP90      -0.2456
     34  OD2       11.0840  -12.1160    5.3580 O.co2  90  ASP90      -0.2456
     35  N         10.7870  -15.6960    6.7550 N.3    95  ALA95      -0.1231
     36  CA        10.1090  -15.4070    8.0010 C.3    95  ALA95       0.1694
     37  C          8.9430  -14.4560    7.9210 C.2    95  ALA95       0.2592
     38  O          8.0080  -14.6150    8.6750 O.2    95  ALA95      -0.2718
     39  CB        11.1220  -14.9130    9.0290 C.3    95  ALA95       0.0304
     40  N          9.0180  -13.4470    7.0420 N.am   96  SER96      -0.1952
     41  CA         7.9440  -12.4770    6.8950 C.3    96  SER96       0.1924
     42  C          7.3050  -12.5270    5.5160 C.2    96  SER96       0.2314
     43  O          6.7570  -11.5450    5.0440 O.2    96  SER96      -0.2863
     44  CB         8.3980  -11.0620    7.2570 C.3    96  SER96       0.2116
     45  OG         8.5700  -10.9420    8.6350 O.3    96  SER96      -0.2180
     46  N          9.8430   -1.6330    4.1730 N.3   135  PRO135     -0.2102
     47  CA        11.0850   -2.1490    4.7090 C.3   135  PRO135      0.1504
     48  C         11.6370   -3.3280    3.9340 C.2   135  PRO135      0.2575
     49  O         10.9070   -4.2610    3.5730 O.2   135  PRO135     -0.2718
     50  CB        10.7060   -2.5350    6.1250 C.3   135  PRO135      0.0282
     51  CG         9.7020   -1.4910    6.5010 C.3   135  PRO135      0.0208
     52  CD         8.8810   -1.3500    5.2600 C.3   135  PRO135      0.0893
     53  N         12.9510   -3.2620    3.7340 N.am  136  ASP136     -0.1974
     54  CA        13.8180   -4.2810    3.1080 C.3   136  ASP136      0.1708
     55  C         13.7770   -4.3760    1.5920 C.2   136  ASP136      0.2293
     56  O         14.6790   -4.9370    0.9880 O.2   136  ASP136     -0.2864
     57  CB        13.5850   -5.6840    3.6480 C.3   136  ASP136      0.1436
     58  CG        13.7310   -5.7840    5.1820 C.2   136  ASP136      0.3671
     59  OD1       14.5790   -5.0590    5.7450 O.co2 136  ASP136     -0.2456
     60  OD2       13.0070   -6.5650    5.8270 O.co2 136  ASP136     -0.2456
     61  N         15.6200   -0.1220   10.3010 N.3   218  VAL218     -0.1231
     62  CA        14.3170   -0.6480   10.6100 C.3   218  VAL218      0.1692
     63  C         14.4020   -2.1310   10.9400 C.2   218  VAL218      0.2591
     64  O         14.8670   -2.9450   10.1450 O.2   218  VAL218     -0.2718
     65  CB        13.3080   -0.3730    9.4760 C.3   218  VAL218      0.0266
     66  CG1       11.9500   -1.0370    9.7440 C.3   218  VAL218      0.0020
     67  CG2       13.0970    1.1260    9.2730 C.3   218  VAL218      0.0020
     68  N         13.8850   -2.4640   12.1180 N.am  219  ALA219     -0.1980
     69  CA        13.9160   -3.8240   12.6140 C.3   219  ALA219      0.1597
     70  C         15.3130   -4.3820   12.8410 C.2   219  ALA219      0.2287
     71  O         15.4850   -5.5930   12.9910 O.2   219  ALA219     -0.2864
     72  CB        13.0540   -4.7820   11.7990 C.3   219  ALA219      0.0319
     73  N         19.8070  -11.2170   12.1520 N.3   281  TRP281     -0.1241
     74  CA        18.7630  -10.2280   12.3480 C.3   281  TRP281      0.1605
     75  C         17.5860  -10.7010   13.2030 C.2   281  TRP281      0.2264
     76  O         16.7660   -9.8800   13.6210 O.2   281  TRP281     -0.2867
     77  CB        18.1810   -9.7370   10.9720 C.3   281  TRP281      0.0550
     78  CG        17.8340  -10.8430   10.0750 C.ar  281  TRP281      0.0003
     79  CD1       18.6210  -11.3900    9.1310 C.ar  281  TRP281      0.0946
     80  CD2       16.6140  -11.5900   10.0470 C.ar  281  TRP281      0.0152
     81  NE1       17.9980  -12.4680    8.5650 N.ar  281  TRP281     -0.2442
     82  CE2       16.7510  -12.5960    9.1040 C.ar  281  TRP281      0.0810
     83  CE3       15.4200  -11.5030   10.7440 C.ar  281  TRP281      0.0012
     84  CZ2       15.7480  -13.5390    8.8650 C.ar  281  TRP281      0.0191
     85  CZ3       14.4230  -12.4350   10.5150 C.ar  281  TRP281      0.0001
     86  CH2       14.6050  -13.4490    9.6070 C.ar  281  TRP281      0.0015
     87  N         10.2050   -0.7130   14.1260 N.3   309  LYS309     -0.1245
     88  CA         9.8580   -2.0710   14.5610 C.3   309  LYS309      0.1561
     89  C          9.4250   -2.0210   16.0350 C.2   309  LYS309      0.2260
     90  O         10.1990   -1.5440   16.8600 O.2   309  LYS309     -0.2867
     91  CB        11.0500   -2.9850   14.3620 C.3   309  LYS309      0.0271
     92  CG        10.9090   -4.3730   15.0000 C.3   309  LYS309      0.0035
     93  CD         9.8740   -5.2260   14.2950 C.3   309  LYS309      0.0206
     94  CE         9.6200   -6.4900   15.0670 C.3   309  LYS309      0.1093
     95  NZ         8.7680   -7.4230   14.2950 N.3   309  LYS309     -0.1314
     96  N          7.5080  -10.3020   17.2190 N.3   314  CYS314     -0.1221
     97  CA         8.5220  -11.2450   16.8150 C.3   314  CYS314      0.1808
     98  C          9.0660  -10.9660   15.4120 C.2   314  CYS314      0.2601
     99  O          8.3500  -10.3910   14.5630 O.2   314  CYS314     -0.2717
    100  CB         7.9210  -12.6490   16.8660 C.3   314  CYS314      0.0970
    101  SG         9.1640  -13.9280   16.7910 S.3   314  CYS314     -0.0800
    102  N         10.2900  -11.3650   15.1580 N.am  315  ASP315     -0.1973
    103  CA        10.9080  -11.2660   13.8420 C.3   315  ASP315      0.1709
    104  C         10.7190  -12.5510   13.0050 C.2   315  ASP315      0.2293
    105  O         11.0290  -12.5590   11.8250 O.2   315  ASP315     -0.2864
    106  CB        12.3960  -11.0340   13.9210 C.3   315  ASP315      0.1436
    107  CG        12.7530   -9.7910   14.6620 C.2   315  ASP315      0.3671
    108  OD1       12.1260   -8.7450   14.4060 O.co2 315  ASP315     -0.2456
    109  OD2       13.6940   -9.7930   15.4550 O.co2 315  ASP315     -0.2456
    110  N          6.4730  -14.3220   12.9030 N.3   341  ALA341     -0.1231
    111  CA         6.8250  -12.9050   12.7430 C.3   341  ALA341      0.1694
    112  C          5.5740  -12.0710   12.8630 C.2   341  ALA341      0.2592
    113  O          4.5330  -12.3960   12.3010 O.2   341  ALA341     -0.2718
    114  CB         7.4620  -12.6700   11.3740 C.3   341  ALA341      0.0304
    115  N          5.6920  -11.0010   13.6530 N.am  342  GLY342     -0.1957
    116  CA         4.6210  -10.0780   13.8790 C.3   342  GLY342      0.1869
    117  C          3.7570  -10.4050   15.1050 C.2   342  GLY342      0.2309
    118  O          3.0700   -9.5170   15.6220 O.2   342  GLY342     -0.2863
@<TRIPOS>BOND
     1    56    55    2
     2    29    30    2
     3    29    28    1
     4    27    28    1
     5    55    54    1
     6    28    31    1
     7    54    57    1
     8    54    53    1
     9    31    32    1
    10    49    48    2
    11    57    58    1
    12    53    48   am
    13    17    16    1
    14    17    18    2
    15    48    47    1
    16    46    47    1
    17    46    52    1
    18    16    15    1
    19    16    19    1
    20    32    33   ar
    21    32    34   ar
    22    47    50    1
    23    21    23   ar
    24    21    20   ar
    25    23    25   ar
    26    43    42    2
    27    58    59   ar
    28    58    60   ar
    29    52    51    1
    30    42    41    1
    31    19    20    1
    32    20    22   ar
    33    25    26    1
    34    25    24   ar
    35    50    51    1
    36    22    24   ar
    37    35    36    1
    38    41    40    1
    39    41    44    1
    40    40    37   am
    41    44    45    1
    42    37    36    1
    43    37    38    2
    44    36    39    1
    45    81    82   ar
    46    81    79   ar
    47    84    82   ar
    48    84    86   ar
    49    13    11   ar
    50    13    14   ar
    51    82    80   ar
    52    79    78   ar
    53    67    65    1
    54    11     8   ar
    55    65    66    1
    56    65    62    1
    57    86    85   ar
    58    14    12   ar
    59     3     4    2
    60     3     2    1
    61    80    78   ar
    62    80    83   ar
    63    78    77    1
    64    64    63    2
    65    61    62    1
    66     8     6   ar
    67     8    10   ar
    68     2     5    1
    69     2     1    1
    70    85    83   ar
    71    62    63    1
    72     5     6    1
    73    12    10   ar
    74    63    68   am
    75    77    74    1
    76     6     7   ar
    77    10     9   ar
    78   114   111    1
    79    72    69    1
    80   105   104    2
    81    68    69    1
    82    73    74    1
    83     7     9   ar
    84   113   112    2
    85    74    75    1
    86    69    70    1
    87   111   112    1
    88   111   110    1
    89    70    71    2
    90   112   115   am
    91   104   103    1
    92    75    76    2
    93   115   116    1
    94   103   106    1
    95   103   102    1
    96   116   117    1
    97   106   107    1
    98    87    88    1
    99    93    92    1
   100    93    94    1
   101    95    94    1
   102    91    88    1
   103    91    92    1
   104   108   107   ar
   105    88    89    1
   106    99    98    2
   107   107   109   ar
   108   117   118    2
   109   102    98   am
   110    98    97    1
   111    89    90    2
   112   101   100    1
   113    97   100    1
   114    97    96    1
