@<TRIPOS>MOLECULE
tmp/1ocnA04.pdb
 106 101 0 0 0
SMALL
GASTEIGER

@<TRIPOS>ATOM
      1  N          9.5200   -9.8050    1.4510 N.3    90  ASP90      -0.1239
      2  CA        10.6300  -10.3830    2.2300 C.3    90  ASP90       0.1674
      3  C         11.3430  -11.4350    1.3920 C.2    90  ASP90       0.2266
      4  O         11.5860  -12.5580    1.8160 O.2    90  ASP90      -0.2867
      5  CB        10.1220  -10.9190    3.5690 C.3    90  ASP90       0.1410
      6  CG        11.1990  -11.1650    4.5660 C.2    90  ASP90       0.3668
      7  OD1       12.1780  -10.4050    4.6660 O.co2  90  ASP90      -0.2456
      8  OD2       11.0840  -12.1160    5.3580 O.co2  90  ASP90      -0.2456
      9  N         14.2340  -12.3560    0.4050 N.3    92  ALA92      -0.1231
     10  CA        15.4540  -13.0670    0.7260 C.3    92  ALA92       0.1694
     11  C         15.3750  -13.9460    1.9830 C.2    92  ALA92       0.2591
     12  O         16.3900  -14.4900    2.4040 O.2    92  ALA92      -0.2718
     13  CB        16.5850  -12.0670    0.8540 C.3    92  ALA92       0.0304
     14  N         14.2230  -14.0360    2.6260 N.am   93  ALA93      -0.1980
     15  CA        14.0580  -14.8360    3.8540 C.3    93  ALA93       0.1597
     16  C         12.6040  -15.2880    3.9660 C.2    93  ALA93       0.2287
     17  O         11.7240  -14.5920    3.5490 O.2    93  ALA93      -0.2864
     18  CB        14.4400  -13.9940    5.0640 C.3    93  ALA93       0.0319
     19  N          9.0180  -13.4470    7.0420 N.3    96  SER96      -0.1217
     20  CA         7.9440  -12.4770    6.8950 C.3    96  SER96       0.1889
     21  C          7.3050  -12.5270    5.5160 C.2    96  SER96       0.2288
     22  O          6.7570  -11.5450    5.0440 O.2    96  SER96      -0.2866
     23  CB         8.3980  -11.0620    7.2570 C.3    96  SER96       0.2089
     24  OG         8.5700  -10.9420    8.6350 O.3    96  SER96      -0.2183
     25  N         12.9510   -3.2620    3.7340 N.3   136  ASP136     -0.1239
     26  CA        13.8180   -4.2810    3.1080 C.3   136  ASP136      0.1674
     27  C         13.7770   -4.3760    1.5920 C.2   136  ASP136      0.2266
     28  O         14.6790   -4.9370    0.9880 O.2   136  ASP136     -0.2867
     29  CB        13.5850   -5.6840    3.6480 C.3   136  ASP136      0.1410
     30  CG        13.7310   -5.7840    5.1820 C.2   136  ASP136      0.3668
     31  OD1       14.5790   -5.0590    5.7450 O.co2 136  ASP136     -0.2456
     32  OD2       13.0070   -6.5650    5.8270 O.co2 136  ASP136     -0.2456
     33  N         17.0730   -5.2890   -0.6660 N.3   140  ASN140     -0.1240
     34  CA        17.1370   -6.5610   -1.3630 C.3   140  ASN140      0.1653
     35  C         17.4200   -6.3880   -2.8510 C.2   140  ASN140      0.2266
     36  O         18.1330   -7.1960   -3.4450 O.2   140  ASN140     -0.2867
     37  CB        15.8670   -7.3790   -1.1370 C.3   140  ASN140      0.1155
     38  CG        15.8780   -8.0880    0.1880 C.2   140  ASN140      0.2627
     39  OD1       16.9030   -8.5640    0.6570 O.2   140  ASN140     -0.2716
     40  ND2       14.6880   -8.2710    0.7550 N.am  140  ASN140     -0.0877
     41  N         20.6740   -8.6290   -3.2480 N.3   144  ASN144     -0.1240
     42  CA        20.1720  -10.0100   -3.3250 C.3   144  ASN144      0.1653
     43  C         19.6760  -10.4390   -4.6780 C.2   144  ASN144      0.2266
     44  O         18.8710  -11.3290   -4.7880 O.2   144  ASN144     -0.2867
     45  CB        19.1180  -10.2550   -2.2120 C.3   144  ASN144      0.1155
     46  CG        19.7600  -10.6200   -0.9030 C.2   144  ASN144      0.2627
     47  OD1       20.7790  -11.3080   -0.8730 O.2   144  ASN144     -0.2716
     48  ND2       19.2130  -10.1130    0.1980 N.am  144  ASN144     -0.0877
     49  N         20.4400   -0.7030    6.4830 N.3   181  HIS181     -0.1241
     50  CA        21.1340   -0.2840    7.6790 C.3   181  HIS181      0.1621
     51  C         22.6450   -0.3250    7.3980 C.2   181  HIS181      0.2264
     52  O         23.0530   -0.7630    6.3380 O.2   181  HIS181     -0.2867
     53  CB        20.7460   -1.1300    8.8970 C.3   181  HIS181      0.0745
     54  CG        21.1160   -2.5680    8.7980 C.ar  181  HIS181      0.0817
     55  ND1       22.3460   -3.0620    9.1800 N.ar  181  HIS181     -0.2268
     56  CD2       20.3880   -3.6240    8.3940 C.ar  181  HIS181      0.1154
     57  CE1       22.3430   -4.3690    8.9740 C.ar  181  HIS181      0.1986
     58  NE2       21.1650   -4.7420    8.5130 N.ar  181  HIS181     -0.2212
     59  N         24.2700   -3.3980    6.0680 N.3   184  TRP184     -0.1241
     60  CA        23.6930   -3.9460    4.8690 C.3   184  TRP184      0.1605
     61  C         24.1340   -3.0770    3.6830 C.2   184  TRP184      0.2264
     62  O         25.0880   -3.4590    2.9760 O.2   184  TRP184     -0.2867
     63  CB        22.1490   -4.0500    5.0300 C.3   184  TRP184      0.0550
     64  CG        21.4610   -4.8280    3.9200 C.ar  184  TRP184      0.0003
     65  CD1       22.0200   -5.3160    2.7830 C.ar  184  TRP184      0.0946
     66  CD2       20.1010   -5.1950    3.8780 C.ar  184  TRP184      0.0152
     67  NE1       21.0890   -5.9760    2.0550 N.ar  184  TRP184     -0.2442
     68  CE2       19.8940   -5.9120    2.6970 C.ar  184  TRP184      0.0810
     69  CE3       18.9890   -4.9570    4.7230 C.ar  184  TRP184      0.0012
     70  CZ2       18.6550   -6.4160    2.3410 C.ar  184  TRP184      0.0191
     71  CZ3       17.7590   -5.4700    4.3470 C.ar  184  TRP184      0.0001
     72  CH2       17.6070   -6.1830    3.1920 C.ar  184  TRP184      0.0015
     73  N         15.6200   -0.1220   10.3010 N.3   218  VAL218     -0.1231
     74  CA        14.3170   -0.6480   10.6100 C.3   218  VAL218      0.1692
     75  C         14.4020   -2.1310   10.9400 C.2   218  VAL218      0.2592
     76  O         14.8670   -2.9450   10.1450 O.2   218  VAL218     -0.2718
     77  CB        13.3080   -0.3730    9.4760 C.3   218  VAL218      0.0266
     78  CG1       11.9500   -1.0370    9.7440 C.3   218  VAL218      0.0020
     79  CG2       13.0970    1.1260    9.2730 C.3   218  VAL218      0.0020
     80  N         13.8850   -2.4640   12.1180 N.am  219  ALA219     -0.1966
     81  CA        13.9160   -3.8240   12.6140 C.3   219  ALA219      0.1728
     82  C         15.3130   -4.3820   12.8410 C.2   219  ALA219      0.2616
     83  O         15.4850   -5.5930   12.9910 O.2   219  ALA219     -0.2715
     84  CB        13.0540   -4.7820   11.7990 C.3   219  ALA219      0.0334
     85  N         16.3300   -3.5150   12.8990 N.am  220  ASN220     -0.1972
     86  CA        17.6580   -3.9540   13.2700 C.3   220  ASN220      0.1688
     87  C         18.0340   -3.3170   14.6200 C.2   220  ASN220      0.2292
     88  O         17.1710   -2.7510   15.2990 O.2   220  ASN220     -0.2864
     89  CB        18.6710   -3.7730   12.1460 C.3   220  ASN220      0.1181
     90  CG        19.7060   -4.8640   12.1390 C.2   220  ASN220      0.2629
     91  OD1       20.5450   -4.9430   13.0800 O.2   220  ASN220     -0.2716
     92  ND2       19.6160   -5.7810   11.2030 N.am  220  ASN220     -0.0877
     93  N         19.8070  -11.2170   12.1520 N.3   281  TRP281     -0.1241
     94  CA        18.7630  -10.2280   12.3480 C.3   281  TRP281      0.1605
     95  C         17.5860  -10.7010   13.2030 C.2   281  TRP281      0.2264
     96  O         16.7660   -9.8800   13.6210 O.2   281  TRP281     -0.2867
     97  CB        18.1810   -9.7370   10.9720 C.3   281  TRP281      0.0550
     98  CG        17.8340  -10.8430   10.0750 C.ar  281  TRP281      0.0003
     99  CD1       18.6210  -11.3900    9.1310 C.ar  281  TRP281      0.0946
    100  CD2       16.6140  -11.5900   10.0470 C.ar  281  TRP281      0.0152
    101  NE1       17.9980  -12.4680    8.5650 N.ar  281  TRP281     -0.2442
    102  CE2       16.7510  -12.5960    9.1040 C.ar  281  TRP281      0.0810
    103  CE3       15.4200  -11.5030   10.7440 C.ar  281  TRP281      0.0012
    104  CZ2       15.7480  -13.5390    8.8650 C.ar  281  TRP281      0.0191
    105  CZ3       14.4230  -12.4350   10.5150 C.ar  281  TRP281      0.0001
    106  CH2       14.6050  -13.4490    9.6070 C.ar  281  TRP281      0.0015
@<TRIPOS>BOND
     1    44    43    2
     2    43    42    1
     3    36    35    2
     4    42    41    1
     5    42    45    1
     6    35    34    1
     7    45    46    1
     8    34    37    1
     9    34    33    1
    10    37    38    1
    11    46    47    2
    12    46    48   am
    13    38    39    2
    14    38    40   am
    15     9    10    1
    16    10    13    1
    17    10    11    1
    18    28    27    2
    19     3     4    2
    20     3     2    1
    21     1     2    1
    22    27    26    1
    23    11    12    2
    24    11    14   am
    25    67    68   ar
    26    67    65   ar
    27     2     5    1
    28    70    68   ar
    29    70    72   ar
    30    14    15    1
    31    68    66   ar
    32    65    64   ar
    33    62    61    2
    34    26    29    1
    35    26    25    1
    36    72    71   ar
    37    17    16    2
    38     5     6    1
    39    29    30    1
    40    61    60    1
    41    15    16    1
    42    15    18    1
    43    66    64   ar
    44    66    69   ar
    45    64    63    1
    46    71    69   ar
    47     6     7   ar
    48     6     8   ar
    49    60    63    1
    50    60    59    1
    51    22    21    2
    52    30    31   ar
    53    30    32   ar
    54    21    20    1
    55    52    51    2
    56    49    50    1
    57    20    19    1
    58    20    23    1
    59    23    24    1
    60    51    50    1
    61    50    53    1
    62    56    58   ar
    63    56    54   ar
    64    58    57   ar
    65   101   102   ar
    66   101    99   ar
    67    54    53    1
    68    54    55   ar
    69   104   102   ar
    70   104   106   ar
    71    57    55   ar
    72   102   100   ar
    73    99    98   ar
    74    79    77    1
    75    77    78    1
    76    77    74    1
    77   106   105   ar
    78   100    98   ar
    79   100   103   ar
    80    98    97    1
    81    76    75    2
    82    73    74    1
    83   105   103   ar
    84    74    75    1
    85    75    80   am
    86    97    94    1
    87    92    90   am
    88    84    81    1
    89    80    81    1
    90    90    89    1
    91    90    91    2
    92    89    86    1
    93    93    94    1
    94    94    95    1
    95    81    82    1
    96    82    85   am
    97    82    83    2
    98    85    86    1
    99    95    96    2
   100    86    87    1
   101    87    88    2
