@<TRIPOS>MOLECULE
tmp/1ocnA03.pdb
 96 95 0 0 0
SMALL
GASTEIGER

@<TRIPOS>ATOM
      1  N         14.2340  -12.3560    0.4050 N.3    92  ALA92      -0.1245
      2  CA        15.4540  -13.0670    0.7260 C.3    92  ALA92       0.1562
      3  C         15.3750  -13.9460    1.9830 C.2    92  ALA92       0.2260
      4  O         16.3900  -14.4900    2.4040 O.2    92  ALA92      -0.2867
      5  CB        16.5850  -12.0670    0.8540 C.3    92  ALA92       0.0290
      6  N         17.0730   -5.2890   -0.6660 N.3   140  ASN140     -0.1240
      7  CA        17.1370   -6.5610   -1.3630 C.3   140  ASN140      0.1653
      8  C         17.4200   -6.3880   -2.8510 C.2   140  ASN140      0.2266
      9  O         18.1330   -7.1960   -3.4450 O.2   140  ASN140     -0.2867
     10  CB        15.8670   -7.3790   -1.1370 C.3   140  ASN140      0.1155
     11  CG        15.8780   -8.0880    0.1880 C.2   140  ASN140      0.2627
     12  OD1       16.9030   -8.5640    0.6570 O.2   140  ASN140     -0.2716
     13  ND2       14.6880   -8.2710    0.7550 N.am  140  ASN140     -0.0877
     14  N         21.3730   -5.8680   -3.1230 N.3   143  THR143     -0.1203
     15  CA        22.3500   -6.8820   -2.7680 C.3   143  THR143      0.1994
     16  C         21.9640   -8.3390   -3.0380 C.2   143  THR143      0.2617
     17  O         22.8060   -9.2140   -2.8740 O.2   143  THR143     -0.2717
     18  CB        22.7810   -6.7910   -1.2860 C.3   143  THR143      0.1784
     19  OG1       21.6910   -7.2210   -0.4410 O.3   143  THR143     -0.2211
     20  CG2       23.1730   -5.3770   -0.9040 C.3   143  THR143      0.0376
     21  N         20.6740   -8.6290   -3.2480 N.am  144  ASN144     -0.1974
     22  CA        20.1720  -10.0100   -3.3250 C.3   144  ASN144      0.1688
     23  C         19.6760  -10.4390   -4.6780 C.2   144  ASN144      0.2292
     24  O         18.8710  -11.3290   -4.7880 O.2   144  ASN144     -0.2864
     25  CB        19.1180  -10.2550   -2.2120 C.3   144  ASN144      0.1181
     26  CG        19.7600  -10.6200   -0.9030 C.2   144  ASN144      0.2629
     27  OD1       20.7790  -11.3080   -0.8730 O.2   144  ASN144     -0.2716
     28  ND2       19.2130  -10.1130    0.1980 N.am  144  ASN144     -0.0877
     29  N         20.4400   -0.7030    6.4830 N.3   181  HIS181     -0.1241
     30  CA        21.1340   -0.2840    7.6790 C.3   181  HIS181      0.1621
     31  C         22.6450   -0.3250    7.3980 C.2   181  HIS181      0.2264
     32  O         23.0530   -0.7630    6.3380 O.2   181  HIS181     -0.2867
     33  CB        20.7460   -1.1300    8.8970 C.3   181  HIS181      0.0745
     34  CG        21.1160   -2.5680    8.7980 C.ar  181  HIS181      0.0817
     35  ND1       22.3460   -3.0620    9.1800 N.ar  181  HIS181     -0.2268
     36  CD2       20.3880   -3.6240    8.3940 C.ar  181  HIS181      0.1154
     37  CE1       22.3430   -4.3690    8.9740 C.ar  181  HIS181      0.1986
     38  NE2       21.1650   -4.7420    8.5130 N.ar  181  HIS181     -0.2212
     39  N         25.0410   -2.1450    8.3200 N.3   183  GLY183     -0.1210
     40  CA        25.5970   -3.4660    8.0850 C.3   183  GLY183      0.1956
     41  C         25.0450   -4.1310    6.8660 C.2   183  GLY183      0.2611
     42  O         25.3350   -5.3030    6.6240 O.2   183  GLY183     -0.2717
     43  N         24.2700   -3.3980    6.0680 N.am  184  TRP184     -0.1976
     44  CA        23.6930   -3.9460    4.8690 C.3   184  TRP184      0.1640
     45  C         24.1340   -3.0770    3.6830 C.2   184  TRP184      0.2290
     46  O         25.0880   -3.4590    2.9760 O.2   184  TRP184     -0.2864
     47  CB        22.1490   -4.0500    5.0300 C.3   184  TRP184      0.0576
     48  CG        21.4610   -4.8280    3.9200 C.ar  184  TRP184      0.0006
     49  CD1       22.0200   -5.3160    2.7830 C.ar  184  TRP184      0.0946
     50  CD2       20.1010   -5.1950    3.8780 C.ar  184  TRP184      0.0152
     51  NE1       21.0890   -5.9760    2.0550 N.ar  184  TRP184     -0.2442
     52  CE2       19.8940   -5.9120    2.6970 C.ar  184  TRP184      0.0810
     53  CE3       18.9890   -4.9570    4.7230 C.ar  184  TRP184      0.0012
     54  CZ2       18.6550   -6.4160    2.3410 C.ar  184  TRP184      0.0191
     55  CZ3       17.7590   -5.4700    4.3470 C.ar  184  TRP184      0.0001
     56  CH2       17.6070   -6.1830    3.1920 C.ar  184  TRP184      0.0015
     57  N         16.3300   -3.5150   12.8990 N.3   220  ASN220     -0.1240
     58  CA        17.6580   -3.9540   13.2700 C.3   220  ASN220      0.1653
     59  C         18.0340   -3.3170   14.6200 C.2   220  ASN220      0.2266
     60  O         17.1710   -2.7510   15.2990 O.2   220  ASN220     -0.2867
     61  CB        18.6710   -3.7730   12.1460 C.3   220  ASN220      0.1155
     62  CG        19.7060   -4.8640   12.1390 C.2   220  ASN220      0.2627
     63  OD1       20.5450   -4.9430   13.0800 O.2   220  ASN220     -0.2716
     64  ND2       19.6160   -5.7810   11.2030 N.am  220  ASN220     -0.0877
     65  N         26.9930   -9.9120   12.2900 N.3   278  TRP278     -0.1227
     66  CA        26.1400   -8.7640   12.0460 C.3   278  TRP278      0.1737
     67  C         24.9000   -9.1090   11.2450 C.2   278  TRP278      0.2596
     68  O         23.8570   -8.4640   11.3790 O.2   278  TRP278     -0.2718
     69  CB        26.9130   -7.6600   11.3120 C.3   278  TRP278      0.0564
     70  CG        26.4230   -6.2920   11.5680 C.ar  278  TRP278      0.0003
     71  CD1       25.3070   -5.8760   12.2840 C.ar  278  TRP278      0.0946
     72  CD2       27.0320   -5.1040   11.0730 C.ar  278  TRP278      0.0152
     73  NE1       25.2110   -4.5090   12.2510 N.ar  278  TRP278     -0.2442
     74  CE2       26.2740   -4.0120   11.5380 C.ar  278  TRP278      0.0810
     75  CE3       28.1770   -4.8480   10.2960 C.ar  278  TRP278      0.0012
     76  CZ2       26.6120   -2.7030   11.2300 C.ar  278  TRP278      0.0191
     77  CZ3       28.4740   -3.5550   10.0130 C.ar  278  TRP278      0.0001
     78  CH2       27.7440   -2.5200   10.5120 C.ar  278  TRP278      0.0015
     79  N         24.9820  -10.1260   10.4070 N.am  279  GLY279     -0.1957
     80  CA        23.8540  -10.5620    9.6100 C.3   279  GLY279      0.1869
     81  C         22.7790  -11.3190   10.3340 C.2   279  GLY279      0.2309
     82  O         21.7850  -11.7470    9.7230 O.2   279  GLY279     -0.2863
     83  N         19.8070  -11.2170   12.1520 N.3   281  TRP281     -0.1241
     84  CA        18.7630  -10.2280   12.3480 C.3   281  TRP281      0.1605
     85  C         17.5860  -10.7010   13.2030 C.2   281  TRP281      0.2264
     86  O         16.7660   -9.8800   13.6210 O.2   281  TRP281     -0.2867
     87  CB        18.1810   -9.7370   10.9720 C.3   281  TRP281      0.0550
     88  CG        17.8340  -10.8430   10.0750 C.ar  281  TRP281      0.0003
     89  CD1       18.6210  -11.3900    9.1310 C.ar  281  TRP281      0.0946
     90  CD2       16.6140  -11.5900   10.0470 C.ar  281  TRP281      0.0152
     91  NE1       17.9980  -12.4680    8.5650 N.ar  281  TRP281     -0.2442
     92  CE2       16.7510  -12.5960    9.1040 C.ar  281  TRP281      0.0810
     93  CE3       15.4200  -11.5030   10.7440 C.ar  281  TRP281      0.0012
     94  CZ2       15.7480  -13.5390    8.8650 C.ar  281  TRP281      0.0191
     95  CZ3       14.4230  -12.4350   10.5150 C.ar  281  TRP281      0.0001
     96  CH2       14.6050  -13.4490    9.6070 C.ar  281  TRP281      0.0015
@<TRIPOS>BOND
     1    24    23    2
     2    23    22    1
     3     9     8    2
     4    22    21    1
     5    22    25    1
     6    21    16   am
     7    14    15    1
     8    16    17    2
     9    16    15    1
    10     8     7    1
    11    15    18    1
    12    25    26    1
    13     7    10    1
    14     7     6    1
    15    18    20    1
    16    18    19    1
    17    10    11    1
    18    26    27    2
    19    26    28   am
    20    11    12    2
    21    11    13   am
    22     1     2    1
    23     2     5    1
    24     2     3    1
    25     3     4    2
    26    51    52   ar
    27    51    49   ar
    28    54    52   ar
    29    54    56   ar
    30    52    50   ar
    31    49    48   ar
    32    46    45    2
    33    56    55   ar
    34    45    44    1
    35    50    48   ar
    36    50    53   ar
    37    48    47    1
    38    55    53   ar
    39    44    47    1
    40    44    43    1
    41    43    41   am
    42    32    31    2
    43    29    30    1
    44    42    41    2
    45    41    40    1
    46    31    30    1
    47    30    33    1
    48    40    39    1
    49    36    38   ar
    50    36    34   ar
    51    38    37   ar
    52    91    92   ar
    53    91    89   ar
    54    34    33    1
    55    34    35   ar
    56    94    92   ar
    57    94    96   ar
    58    37    35   ar
    59    92    90   ar
    60    89    88   ar
    61    96    95   ar
    62    80    81    1
    63    80    79    1
    64    82    81    2
    65    77    75   ar
    66    77    78   ar
    67    90    88   ar
    68    90    93   ar
    69    88    87    1
    70    75    72   ar
    71    79    67   am
    72    78    76   ar
    73    95    93   ar
    74    87    84    1
    75    72    74   ar
    76    72    70   ar
    77    64    62   am
    78    76    74   ar
    79    67    68    2
    80    67    66    1
    81    69    70    1
    82    69    66    1
    83    74    73   ar
    84    70    71   ar
    85    66    65    1
    86    62    61    1
    87    62    63    2
    88    61    58    1
    89    83    84    1
    90    73    71   ar
    91    84    85    1
    92    57    58    1
    93    85    86    2
    94    58    59    1
    95    59    60    2
