@<TRIPOS>MOLECULE
tmp/1ocqA00.pdb
 131 128 0 0 0
SMALL
GASTEIGER

@<TRIPOS>ATOM
      1  N         62.5170   49.3740   28.3370 N.3    32  HIS32      -0.1241
      2  CA        61.7320   49.2400   29.5720 C.3    32  HIS32       0.1621
      3  C         60.2930   49.0550   29.1610 C.2    32  HIS32       0.2264
      4  O         60.0060   48.7270   27.9950 O.2    32  HIS32      -0.2867
      5  CB        62.0580   50.4670   30.4770 C.3    32  HIS32       0.0745
      6  CG        61.6920   50.3800   31.9180 C.ar   32  HIS32       0.0817
      7  ND1       60.4000   50.4030   32.3770 N.ar   32  HIS32      -0.2268
      8  CD2       62.5120   50.3600   32.9880 C.ar   32  HIS32       0.1154
      9  CE1       60.4580   50.3980   33.7100 C.ar   32  HIS32       0.1986
     10  NE2       61.7200   50.3810   34.1020 N.ar   32  HIS32      -0.2212
     11  N         54.7140   45.0660   28.5480 N.3    63  TYR63      -0.1241
     12  CA        53.9770   44.6640   29.7360 C.3    63  TYR63       0.1605
     13  C         52.5460   44.3890   29.3440 C.2    63  TYR63       0.2264
     14  O         51.9250   45.1300   28.5580 O.2    63  TYR63      -0.2867
     15  CB        53.9460   45.7490   30.8070 C.3    63  TYR63       0.0534
     16  CG        55.1620   45.8320   31.6990 C.ar   63  TYR63      -0.0201
     17  CD1       56.4070   46.2960   31.2620 C.ar   63  TYR63      -0.0009
     18  CD2       55.0700   45.5090   33.0520 C.ar   63  TYR63      -0.0009
     19  CE1       57.4850   46.4450   32.1150 C.ar   63  TYR63       0.0417
     20  CE2       56.1650   45.6560   33.9050 C.ar   63  TYR63       0.0417
     21  CZ        57.3430   46.1580   33.4560 C.ar   63  TYR63       0.1957
     22  OH        58.4360   46.3820   34.2820 O.3    63  TYR63      -0.2866
     23  N         55.1710   40.5950   28.2050 N.3    98  HIS98      -0.1241
     24  CA        55.9460   40.8480   29.4130 C.3    98  HIS98       0.1621
     25  C         55.0900   40.7370   30.6780 C.2    98  HIS98       0.2264
     26  O         54.7090   41.7430   31.3120 O.2    98  HIS98      -0.2867
     27  CB        56.6950   42.1870   29.2860 C.3    98  HIS98       0.0745
     28  CG        57.7640   42.3960   30.2870 C.ar   98  HIS98       0.0817
     29  ND1       59.0860   42.0910   30.0300 N.ar   98  HIS98      -0.2268
     30  CD2       57.7220   42.9810   31.5200 C.ar   98  HIS98       0.1154
     31  CE1       59.8050   42.4760   31.0780 C.ar   98  HIS98       0.1986
     32  NE2       59.0050   43.0240   31.9870 N.ar   98  HIS98      -0.2212
     33  N         54.3590   39.8350   34.5640 N.3   100  LEU100     -0.1245
     34  CA        55.1240   40.0590   35.8140 C.3   100  LEU100      0.1561
     35  C         54.1920   39.9540   37.0050 C.2   100  LEU100      0.2260
     36  O         54.1010   38.9260   37.6540 O.2   100  LEU100     -0.2867
     37  CB        55.8910   41.3730   35.7460 C.3   100  LEU100      0.0270
     38  CG        56.8610   41.6200   36.9240 C.3   100  LEU100      0.0019
     39  CD1       57.9200   40.5530   36.9930 C.3   100  LEU100      0.0001
     40  CD2       57.4850   42.9770   36.8310 C.3   100  LEU100      0.0001
     41  N         57.3600   36.5860   29.7130 N.3   135  ASN135     -0.1225
     42  CA        58.5920   37.1000   30.3080 C.3   135  ASN135      0.1785
     43  C         59.0470   36.3340   31.5780 C.2   135  ASN135      0.2597
     44  O         60.1080   35.7080   31.5650 O.2   135  ASN135     -0.2718
     45  CB        58.3700   38.5960   30.6490 C.3   135  ASN135      0.1169
     46  CG        59.4050   39.1610   31.5580 C.2   135  ASN135      0.2627
     47  OD1       60.5760   39.0900   31.3070 O.2   135  ASN135     -0.2716
     48  ND2       58.9230   39.7950   32.6530 N.am  135  ASN135     -0.0877
     49  N         58.2960   36.4800   32.6770 N.am  136  GLU136     -0.1979
     50  CA        58.6720   35.9860   34.0230 C.3   136  GLU136      0.1602
     51  C         57.5120   35.4040   34.7630 C.2   136  GLU136      0.2287
     52  O         56.9600   36.0190   35.6780 O.2   136  GLU136     -0.2864
     53  CB        59.3260   37.0950   34.8450 C.3   136  GLU136      0.0415
     54  CG        60.7400   37.3560   34.4140 C.3   136  GLU136      0.1163
     55  CD        61.4610   38.4350   35.1860 C.2   136  GLU136      0.3649
     56  OE1       60.8650   39.0820   36.0870 O.co2 136  GLU136     -0.2457
     57  OE2       62.6510   38.6780   34.9170 O.co2 136  GLU136     -0.2457
     58  N         60.5640   33.6430   38.2420 N.3   175  TRP175     -0.1241
     59  CA        61.0350   34.8090   37.4510 C.3   175  TRP175      0.1605
     60  C         62.0790   34.3770   36.4140 C.2   175  TRP175      0.2264
     61  O         63.1280   34.9850   36.2600 O.2   175  TRP175     -0.2867
     62  CB        61.5480   35.9690   38.3130 C.3   175  TRP175      0.0550
     63  CG        60.4930   36.6030   39.1700 C.ar  175  TRP175      0.0003
     64  CD1       59.6290   37.6130   38.8420 C.ar  175  TRP175      0.0946
     65  CD2       60.2360   36.2900   40.5350 C.ar  175  TRP175      0.0152
     66  NE1       58.8510   37.9350   39.9250 N.ar  175  TRP175     -0.2442
     67  CE2       59.2030   37.1420   40.9800 C.ar  175  TRP175      0.0810
     68  CE3       60.7550   35.3610   41.4120 C.ar  175  TRP175      0.0012
     69  CZ2       58.6700   37.0950   42.2670 C.ar  175  TRP175      0.0191
     70  CZ3       60.2470   35.3290   42.6970 C.ar  175  TRP175      0.0001
     71  CH2       59.1960   36.1660   43.0950 C.ar  175  TRP175      0.0015
     72  N         70.2880   39.0860   37.5980 N.3   199  TYR199     -0.1241
     73  CA        70.6760   40.4210   38.0110 C.3   199  TYR199      0.1605
     74  C         71.9750   40.3080   38.7890 C.2   199  TYR199      0.2264
     75  O         72.1160   39.4780   39.6940 O.2   199  TYR199     -0.2867
     76  CB        69.5110   41.0830   38.7940 C.3   199  TYR199      0.0534
     77  CG        68.5040   41.6700   37.8150 C.ar  199  TYR199     -0.0201
     78  CD1       67.5920   40.8720   37.1740 C.ar  199  TYR199     -0.0009
     79  CD2       68.6210   42.9980   37.4110 C.ar  199  TYR199     -0.0009
     80  CE1       66.8010   41.3930   36.1100 C.ar  199  TYR199      0.0417
     81  CE2       67.8350   43.5270   36.4370 C.ar  199  TYR199      0.0417
     82  CZ        66.9640   42.7080   35.7630 C.ar  199  TYR199      0.1957
     83  OH        66.2460   43.2730   34.7230 O.3   199  TYR199     -0.2866
     84  N         66.7100   38.6180   29.3780 N.3   225  GLU225     -0.1245
     85  CA        66.7870   39.8290   30.1970 C.3   225  GLU225      0.1567
     86  C         67.8240   39.6180   31.2710 C.2   225  GLU225      0.2260
     87  O         67.8160   38.6130   31.9940 O.2   225  GLU225     -0.2867
     88  CB        65.4280   40.1410   30.8330 C.3   225  GLU225      0.0388
     89  CG        65.3580   41.5680   31.3550 C.3   225  GLU225      0.1160
     90  CD        64.1540   41.7720   32.1840 C.2   225  GLU225      0.3649
     91  OE1       63.0000   41.7390   31.7040 O.co2 225  GLU225     -0.2457
     92  OE2       64.3880   41.9190   33.4500 O.co2 225  GLU225     -0.2457
     93  N         68.0710   42.7050   41.8270 N.3   231  ALA231     -0.1231
     94  CA        66.9190   42.0750   41.1820 C.3   231  ALA231      0.1694
     95  C         65.6850   42.9500   41.0820 C.2   231  ALA231      0.2593
     96  O         64.7590   42.6160   40.3350 O.2   231  ALA231     -0.2718
     97  CB        66.5740   40.7710   41.8980 C.3   231  ALA231      0.0304
     98  N         65.6710   44.0650   41.7990 N.am  232  THR232     -0.1939
     99  CA        64.6130   45.0720   41.7080 C.3   232  THR232      0.2028
    100  C         64.7510   46.0060   40.5060 C.2   232  THR232      0.2642
    101  O         63.8590   46.8130   40.2780 O.2   232  THR232     -0.2714
    102  CB        64.6940   45.9700   42.9330 C.3   232  THR232      0.1808
    103  OG1       66.0210   46.4770   42.9380 O.3   232  THR232     -0.2208
    104  CG2       64.4360   45.2240   44.2460 C.3   232  THR232      0.0379
    105  N         65.8730   45.9410   39.8060 N.am  233  GLY233     -0.1954
    106  CA        66.2120   46.9270   38.7900 C.3   233  GLY233      0.1869
    107  C         66.9390   48.1400   39.3340 C.2   233  GLY233      0.2309
    108  O         67.3250   49.0190   38.5540 O.2   233  GLY233     -0.2863
    109  N         68.5950   44.8570   30.3840 N.3   259  TRP259     -0.1241
    110  CA        67.5100   45.7050   30.9360 C.3   259  TRP259      0.1605
    111  C         68.1870   46.9430   31.5510 C.2   259  TRP259      0.2264
    112  O         68.9810   46.7600   32.4940 O.2   259  TRP259     -0.2867
    113  CB        66.8030   44.9240   32.0360 C.3   259  TRP259      0.0550
    114  CG        65.5690   45.6090   32.5800 C.ar  259  TRP259      0.0003
    115  CD1       65.4690   46.3530   33.7050 C.ar  259  TRP259      0.0946
    116  CD2       64.2660   45.5780   32.0130 C.ar  259  TRP259      0.0152
    117  NE1       64.2060   46.8080   33.8860 N.ar  259  TRP259     -0.2442
    118  CE2       63.4000   46.3480   32.8670 C.ar  259  TRP259      0.0810
    119  CE3       63.6930   44.9980   30.8520 C.ar  259  TRP259      0.0012
    120  CZ2       62.0700   46.5170   32.6060 C.ar  259  TRP259      0.0191
    121  CZ3       62.3780   45.1720   30.6170 C.ar  259  TRP259      0.0001
    122  CH2       61.5700   45.9280   31.4890 C.ar  259  TRP259      0.0015
    123  N         67.0170   54.5950   38.1550 N.3   266  GLU266     -0.1245
    124  CA        67.2830   53.3260   38.7900 C.3   266  GLU266      0.1567
    125  C         68.5790   52.8230   38.1810 C.2   266  GLU266      0.2260
    126  O         68.8790   53.0870   37.0370 O.2   266  GLU266     -0.2867
    127  CB        66.1560   52.3230   38.6270 C.3   266  GLU266      0.0388
    128  CG        65.8270   51.9140   37.1940 C.3   266  GLU266      0.1160
    129  CD        64.5730   51.1160   37.0530 C.2   266  GLU266      0.3649
    130  OE1       63.7410   51.0630   38.0060 O.co2 266  GLU266     -0.2457
    131  OE2       64.3470   50.5290   35.9520 O.co2 266  GLU266     -0.2457
@<TRIPOS>BOND
     1     4     3    2
     2    23    24    1
     3     1     2    1
     4    11    12    1
     5    14    13    2
     6     3     2    1
     7    27    24    1
     8    27    28    1
     9    13    12    1
    10    84    85    1
    11    24    25    1
    12     2     5    1
    13    41    42    1
    14    12    15    1
    15    29    28   ar
    16    29    31   ar
    17    85    88    1
    18    85    86    1
    19    28    30   ar
    20    42    45    1
    21    42    43    1
    22   109   110    1
    23     5     6    1
    24   121   119   ar
    25   121   122   ar
    26    45    46    1
    27    25    26    2
    28    15    16    1
    29    88    89    1
    30   119   116   ar
    31   110   111    1
    32   110   113    1
    33    31    32   ar
    34    17    16   ar
    35    17    19   ar
    36    86    87    2
    37    47    46    2
    38    89    90    1
    39   122   120   ar
    40    30    32   ar
    41   111   112    2
    42    46    48   am
    43    44    43    2
    44    43    49   am
    45    16    18   ar
    46    91    90   ar
    47     6     7   ar
    48     6     8   ar
    49   116   114   ar
    50   116   118   ar
    51   113   114    1
    52    19    21   ar
    53    90    92   ar
    54     7     9   ar
    55   114   115   ar
    56   120   118   ar
    57    49    50    1
    58   118   117   ar
    59     8    10   ar
    60    18    20   ar
    61    21    20   ar
    62    21    22    1
    63   115   117   ar
    64     9    10   ar
    65    50    51    1
    66    50    53    1
    67    54    53    1
    68    54    55    1
    69    33    34    1
    70    83    82    1
    71    51    52    2
    72    57    55   ar
    73    55    56   ar
    74    37    34    1
    75    37    38    1
    76    82    80   ar
    77    82    81   ar
    78    34    35    1
    79   131   129   ar
    80    80    78   ar
    81    61    60    2
    82    60    59    1
    83    81    79   ar
    84    40    38    1
    85    38    39    1
    86    35    36    2
    87   126   125    2
    88   129   128    1
    89   129   130   ar
    90    78    77   ar
    91   128   127    1
    92    79    77   ar
    93    59    58    1
    94    59    62    1
    95    72    73    1
    96    77    76    1
    97    73    74    1
    98    73    76    1
    99   123   124    1
   100   125   124    1
   101    62    63    1
   102   108   107    2
   103   127   124    1
   104    74    75    2
   105   106   107    1
   106   106   105    1
   107    64    63   ar
   108    64    66   ar
   109    63    65   ar
   110   105   100   am
   111    66    67   ar
   112   101   100    2
   113    96    95    2
   114   100    99    1
   115    65    67   ar
   116    65    68   ar
   117    67    69   ar
   118    95    94    1
   119    95    98   am
   120    94    93    1
   121    94    97    1
   122    68    70   ar
   123    99    98    1
   124    99   102    1
   125    69    71   ar
   126    70    71   ar
   127   102   103    1
   128   102   104    1
