@<TRIPOS>MOLECULE
tmp/1ocuA00.pdb
 95 91 0 0 0
SMALL
GASTEIGER

@<TRIPOS>ATOM
      1  N         57.2910   71.0330   48.0040 N.3    30  PHE30      -0.1227
      2  CA        56.3540   71.0090   46.8890 C.3    30  PHE30       0.1736
      3  C         55.2720   69.9430   47.0040 C.2    30  PHE30       0.2596
      4  O         55.4080   68.9750   47.7490 O.2    30  PHE30      -0.2718
      5  CB        57.1280   70.7890   45.5810 C.3    30  PHE30       0.0547
      6  CG        57.6120   69.3680   45.3890 C.ar   30  PHE30      -0.0202
      7  CD1       56.8180   68.4310   44.7300 C.ar   30  PHE30      -0.0042
      8  CD2       58.8610   68.9720   45.8640 C.ar   30  PHE30      -0.0042
      9  CE1       57.2590   67.1220   44.5420 C.ar   30  PHE30      -0.0003
     10  CE2       59.3170   67.6640   45.6820 C.ar   30  PHE30      -0.0003
     11  CZ        58.5170   66.7340   45.0200 C.ar   30  PHE30      -0.0000
     12  N         54.2000   70.1310   46.2430 N.am   31  THR31      -0.1953
     13  CA        53.0940   69.1870   46.2250 C.3    31  THR31       0.1897
     14  C         53.0090   68.4870   44.8620 C.2    31  THR31       0.2313
     15  O         53.1940   69.1160   43.8180 O.2    31  THR31      -0.2863
     16  CB        51.7440   69.9010   46.4480 C.3    31  THR31       0.1794
     17  OG1       51.7860   70.6580   47.6610 O.3    31  THR31      -0.2208
     18  CG2       50.6170   68.8800   46.5290 C.3    31  THR31       0.0378
     19  N         53.8070   67.0900   39.3940 N.3    54  ARG54      -0.1231
     20  CA        53.7760   68.4090   40.0090 C.3    54  ARG54       0.1694
     21  C         52.9470   69.3070   39.1060 C.2    54  ARG54       0.2592
     22  O         52.8330   69.0470   37.9080 O.2    54  ARG54      -0.2718
     23  CB        55.1690   69.0210   40.0250 C.3    54  ARG54       0.0321
     24  CG        56.0650   68.7150   41.1660 C.3    54  ARG54       0.0489
     25  CD        56.9050   69.9690   41.3520 C.3    54  ARG54       0.2205
     26  NE        58.1790   69.7130   41.9900 N.pl3  54  ARG54      -0.0865
     27  CZ        58.9880   70.6660   42.4250 C.cat  54  ARG54       0.5346
     28  NH1       60.1320   70.3290   42.9900 N.pl3  54  ARG54       0.1354
     29  NH2       58.6450   71.9430   42.3060 N.pl3  54  ARG54       0.1354
     30  N         52.4330   70.4020   39.6600 N.am   55  TYR55      -0.1962
     31  CA        51.6440   71.3280   38.8670 C.3    55  TYR55       0.1771
     32  C         52.4810   71.8780   37.7170 C.2    55  TYR55       0.2620
     33  O         51.9980   72.0100   36.6020 O.2    55  TYR55      -0.2715
     34  CB        51.1190   72.4790   39.7350 C.3    55  TYR55       0.0574
     35  CG        50.3120   73.4910   38.9570 C.ar   55  TYR55      -0.0198
     36  CD1       50.9210   74.5910   38.3570 C.ar   55  TYR55      -0.0009
     37  CD2       48.9390   73.3260   38.7830 C.ar   55  TYR55      -0.0009
     38  CE1       50.1790   75.5050   37.5990 C.ar   55  TYR55       0.0417
     39  CE2       48.1920   74.2300   38.0280 C.ar   55  TYR55       0.0417
     40  CZ        48.8140   75.3120   37.4390 C.ar   55  TYR55       0.1957
     41  OH        48.0720   76.1860   36.6710 O.3    55  TYR55      -0.2866
     42  N         53.7390   72.2050   37.9860 N.am   56  SER56      -0.1950
     43  CA        54.6060   72.7240   36.9270 C.3    56  SER56       0.1924
     44  C         54.8510   71.6330   35.8850 C.2    56  SER56       0.2314
     45  O         55.1820   71.9380   34.7480 O.2    56  SER56      -0.2863
     46  CB        55.9440   73.2170   37.4960 C.3    56  SER56       0.2116
     47  OG        56.5840   72.1810   38.2160 O.3    56  SER56      -0.2180
     48  N         52.0700   72.1200   33.6740 N.3    59  GLU59      -0.1245
     49  CA        52.3260   73.3280   32.8910 C.3    59  GLU59       0.1567
     50  C         53.2830   73.0270   31.7340 C.2    59  GLU59       0.2260
     51  O         53.0790   73.4810   30.5990 O.2    59  GLU59      -0.2867
     52  CB        52.9510   74.4170   33.7580 C.3    59  GLU59       0.0388
     53  CG        52.0180   75.1010   34.7300 C.3    59  GLU59       0.1160
     54  CD        52.7170   76.2340   35.4850 C.2    59  GLU59       0.3649
     55  OE1       53.6610   75.9400   36.2540 O.co2  59  GLU59      -0.2457
     56  OE2       52.3350   77.4150   35.3020 O.co2  59  GLU59      -0.2457
     57  N         48.0380   79.4000   38.3360 N.3    84  LYS84      -0.1231
     58  CA        49.1450   79.5830   39.2630 C.3    84  LYS84       0.1693
     59  C         48.5920   80.0890   40.5960 C.2    84  LYS84       0.2591
     60  O         47.5310   80.7110   40.6390 O.2    84  LYS84      -0.2718
     61  CB        50.1430   80.5800   38.6870 C.3    84  LYS84       0.0285
     62  CG        50.9530   80.0410   37.5150 C.3    84  LYS84       0.0035
     63  CD        51.8360   81.1330   36.9290 C.3    84  LYS84       0.0206
     64  CE        52.7890   80.6030   35.8690 C.3    84  LYS84       0.1093
     65  NZ        53.8450   79.7340   36.4510 N.3    84  LYS84      -0.1314
     66  N         49.3090   79.8190   41.6800 N.am   85  ILE85      -0.1980
     67  CA        48.8580   80.2260   43.0100 C.3    85  ILE85       0.1595
     68  C         49.9540   80.8480   43.8800 C.2    85  ILE85       0.2287
     69  O         51.1330   80.5110   43.7560 O.2    85  ILE85      -0.2864
     70  CB        48.2650   79.0190   43.7780 C.3    85  ILE85       0.0276
     71  CG1       47.0760   78.4360   43.0070 C.3    85  ILE85       0.0022
     72  CG2       47.8490   79.4440   45.1810 C.3    85  ILE85       0.0022
     73  CD1       45.9400   79.4110   42.7970 C.3    85  ILE85       0.0001
     74  N         49.1960   78.3600   49.0640 N.3    90  ARG90      -0.1245
     75  CA        49.5890   77.3360   48.1070 C.3    90  ARG90       0.1563
     76  C         49.7380   75.9410   48.7210 C.2    90  ARG90       0.2260
     77  O         49.5840   74.9440   48.0230 O.2    90  ARG90      -0.2867
     78  CB        50.8900   77.7760   47.4340 C.3    90  ARG90       0.0307
     79  CG        51.6550   76.7120   46.6910 C.3    90  ARG90       0.0489
     80  CD        52.8920   77.3340   46.0800 C.3    90  ARG90       0.2205
     81  NE        53.9080   76.3360   45.7740 N.pl3  90  ARG90      -0.0865
     82  CZ        55.0860   76.6140   45.2210 C.cat  90  ARG90       0.5346
     83  NH1       55.3950   77.8710   44.9140 N.pl3  90  ARG90       0.1354
     84  NH2       55.9500   75.6320   44.9680 N.pl3  90  ARG90       0.1354
     85  N         42.7430   72.7170   43.5050 N.3    99  ARG99      -0.1245
     86  CA        43.6670   72.5290   42.4030 C.3    99  ARG99       0.1563
     87  C         43.5980   71.0770   41.9310 C.2    99  ARG99       0.2260
     88  O         43.6280   70.8090   40.7350 O.2    99  ARG99      -0.2867
     89  CB        45.0850   72.8830   42.8390 C.3    99  ARG99       0.0307
     90  CG        46.1580   72.4130   41.8860 C.3    99  ARG99       0.0489
     91  CD        47.4930   72.9790   42.2620 C.3    99  ARG99       0.2205
     92  NE        47.6850   74.3170   41.7190 N.pl3  99  ARG99      -0.0865
     93  CZ        48.7960   75.0210   41.8960 C.cat  99  ARG99       0.5346
     94  NH1       49.7890   74.5040   42.6130 N.pl3  99  ARG99       0.1354
     95  NH2       48.9320   76.2130   41.3310 N.pl3  99  ARG99       0.1354
@<TRIPOS>BOND
     1    51    50    2
     2    50    49    1
     3    49    48    1
     4    49    52    1
     5    52    53    1
     6    53    54    1
     7    45    44    2
     8    56    54   ar
     9    54    55   ar
    10    64    65    1
    11    64    63    1
    12    44    43    1
    13    33    32    2
    14    41    40    1
    15    43    46    1
    16    43    42    1
    17    63    62    1
    18    40    38   ar
    19    40    39   ar
    20    46    47    1
    21    62    61    1
    22    38    36   ar
    23    32    42   am
    24    32    31    1
    25    22    21    2
    26    39    37   ar
    27    57    58    1
    28    36    35   ar
    29    61    58    1
    30    37    35   ar
    31    31    30    1
    32    31    34    1
    33    35    34    1
    34    21    30   am
    35    21    20    1
    36    58    59    1
    37    19    20    1
    38    20    23    1
    39    23    24    1
    40    59    60    2
    41    59    66   am
    42    88    87    2
    43    24    25    1
    44    95    93    1
    45    25    26    1
    46    66    67    1
    47    92    93    2
    48    92    91    1
    49    90    91    1
    50    90    89    1
    51    93    94    1
    52    87    86    1
    53    26    27    2
    54    29    27    1
    55    86    89    1
    56    86    85    1
    57    27    28    1
    58    73    71    1
    59    71    70    1
    60    67    70    1
    61    67    68    1
    62    69    68    2
    63    70    72    1
    64    15    14    2
    65     9     7   ar
    66     9    11   ar
    67     7     6   ar
    68    14    13    1
    69    83    82    1
    70    84    82    1
    71    11    10   ar
    72    82    81    2
    73     6     5    1
    74     6     8   ar
    75     5     2    1
    76    10     8   ar
    77    81    80    1
    78    80    79    1
    79    13    12    1
    80    13    16    1
    81    12     3   am
    82    16    18    1
    83    16    17    1
    84    79    78    1
    85     2     3    1
    86     2     1    1
    87     3     4    2
    88    78    75    1
    89    77    76    2
    90    75    76    1
    91    75    74    1
