@<TRIPOS>MOLECULE
tmp/1od2A00.pdb
 138 131 0 0 0
SMALL
GASTEIGER

@<TRIPOS>ATOM
      1  N          0.8220   -9.8960  -15.5490 N.3   107  LYS107     -0.1231
      2  CA         1.9660   -9.0360  -15.8510 C.3   107  LYS107      0.1693
      3  C          3.1580   -9.4930  -15.0330 C.2   107  LYS107      0.2591
      4  O          3.8430   -8.6890  -14.4040 O.2   107  LYS107     -0.2718
      5  CB         1.6400   -7.5840  -15.5040 C.3   107  LYS107      0.0285
      6  CG         0.4290   -7.0080  -16.2230 C.3   107  LYS107      0.0035
      7  CD         0.7900   -6.5170  -17.6140 C.3   107  LYS107      0.0206
      8  CE        -0.3790   -5.7980  -18.2450 C.3   107  LYS107      0.1093
      9  NZ        -0.9080   -4.7830  -17.3030 N.3   107  LYS107     -0.1314
     10  N          3.3850  -10.7990  -15.0430 N.am  108  ILE108     -0.1980
     11  CA         4.4760  -11.4320  -14.3130 C.3   108  ILE108      0.1595
     12  C          4.6880  -10.9040  -12.8900 C.2   108  ILE108      0.2287
     13  O          5.8080  -10.8200  -12.3960 O.2   108  ILE108     -0.2864
     14  CB         5.7990  -11.3620  -15.1220 C.3   108  ILE108      0.0276
     15  CG1        6.2730   -9.9280  -15.3080 C.3   108  ILE108      0.0022
     16  CG2        5.5790  -11.9620  -16.4890 C.3   108  ILE108      0.0022
     17  CD1        7.6080   -9.8610  -16.0110 C.3   108  ILE108      0.0001
     18  N          4.4760   -7.9650  -11.7790 N.3   110  SER110     -0.1217
     19  CA         5.0470   -6.6270  -11.6810 C.3   110  SER110      0.1889
     20  C          4.2050   -5.7020  -10.7820 C.2   110  SER110      0.2288
     21  O          2.9860   -5.8740  -10.6610 O.2   110  SER110     -0.2866
     22  CB         5.1690   -6.0280  -13.0810 C.3   110  SER110      0.2089
     23  OG         3.9100   -6.0080  -13.7220 O.3   110  SER110     -0.2183
     24  N          7.9970   -9.6870  -10.2430 N.3   140  SER140     -0.1202
     25  CA         9.0640   -9.3390  -11.1500 C.3   140  SER140      0.2020
     26  C          9.4910   -7.8960  -10.9020 C.2   140  SER140      0.2619
     27  O         10.2190   -7.3070  -11.6970 O.2   140  SER140     -0.2717
     28  CB         8.5910   -9.5290  -12.5850 C.3   140  SER140      0.2103
     29  OG         8.2570  -10.8870  -12.8310 O.3   140  SER140     -0.2182
     30  N          9.0230   -7.3340   -9.7920 N.am  141  GLY141     -0.1942
     31  CA         9.3800   -5.9750   -9.4350 C.3   141  GLY141      0.2014
     32  C          8.5060   -4.8760  -10.0010 C.2   141  GLY141      0.2639
     33  O          7.3780   -5.1190  -10.4170 O.2   141  GLY141     -0.2714
     34  N          9.0350   -3.6570  -10.0000 N.am  142  ALA142     -0.1963
     35  CA         8.3190   -2.5010  -10.5150 C.3   142  ALA142      0.1728
     36  C          7.9970   -2.7550  -11.9780 C.2   142  ALA142      0.2616
     37  O          8.7840   -3.3950  -12.6800 O.2   142  ALA142     -0.2715
     38  CB         9.1750   -1.2470  -10.3780 C.3   142  ALA142      0.0334
     39  N          6.8410   -2.2550  -12.4180 N.am  143  ARG143     -0.1963
     40  CA         6.3870   -2.4190  -13.7970 C.3   143  ARG143      0.1729
     41  C          7.0880   -1.4510  -14.7500 C.2   143  ARG143      0.2616
     42  O          7.0920   -0.2460  -14.5330 O.2   143  ARG143     -0.2715
     43  CB         4.8650   -2.2270  -13.8710 C.3   143  ARG143      0.0348
     44  CG         4.2490   -2.5320  -15.2390 C.3   143  ARG143      0.0492
     45  CD         2.7210   -2.6100  -15.1670 C.3   143  ARG143      0.2205
     46  NE         2.2580   -3.7700  -14.4060 N.pl3 143  ARG143     -0.0865
     47  CZ         1.0110   -3.9390  -13.9720 C.cat 143  ARG143      0.5346
     48  NH1        0.0850   -3.0230  -14.2200 N.pl3 143  ARG143      0.1354
     49  NH2        0.6850   -5.0230  -13.2800 N.pl3 143  ARG143      0.1354
     50  N          7.6750   -1.9920  -15.8110 N.am  144  ILE144     -0.1977
     51  CA         8.3910   -1.1770  -16.7810 C.3   144  ILE144      0.1596
     52  C          7.6740   -1.1380  -18.1240 C.2   144  ILE144      0.2287
     53  O          6.8290   -1.9800  -18.4230 O.2   144  ILE144     -0.2864
     54  CB         9.8190   -1.7070  -17.0140 C.3   144  ILE144      0.0276
     55  CG1        9.7720   -3.0520  -17.7450 C.3   144  ILE144      0.0022
     56  CG2       10.5240   -1.8600  -15.6910 C.3   144  ILE144      0.0022
     57  CD1       11.1320   -3.5950  -18.1450 C.3   144  ILE144      0.0001
     58  N          9.8980  -15.7330   -6.4140 N.3   244  ARG244     -0.1245
     59  CA        11.0230  -14.8150   -6.4590 C.3   244  ARG244      0.1563
     60  C         10.5050  -13.4390   -6.0690 C.2   244  ARG244      0.2260
     61  O          9.3000  -13.1800   -6.1080 O.2   244  ARG244     -0.2867
     62  CB        11.6060  -14.7370   -7.8640 C.3   244  ARG244      0.0307
     63  CG        10.6360  -14.1620   -8.8510 C.3   244  ARG244      0.0489
     64  CD        11.3020  -13.8620  -10.1460 C.3   244  ARG244      0.2205
     65  NE        10.3110  -13.4350  -11.1260 N.pl3 244  ARG244     -0.0865
     66  CZ        10.5150  -13.4370  -12.4390 C.cat 244  ARG244      0.5346
     67  NH1       11.6830  -13.8390  -12.9210 N.pl3 244  ARG244      0.1354
     68  NH2        9.5450  -13.0710  -13.2670 N.pl3 244  ARG244      0.1354
     69  N         11.8070   -9.3090   -6.5940 N.3   246  VAL246     -0.1231
     70  CA        12.7620   -8.3980   -7.2020 C.3   246  VAL246      0.1692
     71  C         12.4280   -6.9280   -6.8870 C.2   246  VAL246      0.2592
     72  O         11.2610   -6.5590   -6.8050 O.2   246  VAL246     -0.2718
     73  CB        12.7910   -8.6350   -8.7360 C.3   246  VAL246      0.0266
     74  CG1       14.1710   -8.3740   -9.2740 C.3   246  VAL246      0.0020
     75  CG2       12.3800  -10.0600   -9.0500 C.3   246  VAL246      0.0020
     76  N         13.4460   -6.0950   -6.6880 N.am  247  GLY247     -0.1957
     77  CA        13.1920   -4.6890   -6.4000 C.3   247  GLY247      0.1869
     78  C         12.4440   -4.4300   -5.1060 C.2   247  GLY247      0.2309
     79  O         12.9120   -4.8110   -4.0470 O.2   247  GLY247     -0.2863
     80  N         12.7810   -5.7580   -1.0880 N.3   251  TYR251     -0.1241
     81  CA        12.7250   -4.7970    0.0000 C.3   251  TYR251      0.1605
     82  C         11.4980   -4.9360    0.8750 C.2   251  TYR251      0.2264
     83  O         11.5090   -4.5260    2.0260 O.2   251  TYR251     -0.2867
     84  CB        12.8390   -3.3580   -0.5170 C.3   251  TYR251      0.0534
     85  CG        14.2650   -2.8760   -0.5210 C.ar  251  TYR251     -0.0201
     86  CD1       14.9870   -2.7790   -1.7040 C.ar  251  TYR251     -0.0009
     87  CD2       14.9290   -2.6230    0.6770 C.ar  251  TYR251     -0.0009
     88  CE1       16.3520   -2.4540   -1.6900 C.ar  251  TYR251      0.0417
     89  CE2       16.2770   -2.2980    0.7010 C.ar  251  TYR251      0.0417
     90  CZ        16.9870   -2.2210   -0.4770 C.ar  251  TYR251      0.1957
     91  OH        18.3380   -1.9680   -0.4490 O.3   251  TYR251     -0.2866
     92  N         16.0160  -11.0650   -5.2420 N.3   268  ILE268     -0.1231
     93  CA        17.0350  -10.2090   -5.8410 C.3   268  ILE268      0.1692
     94  C         16.6550   -8.7950   -6.2120 C.2   268  ILE268      0.2592
     95  O         15.4930   -8.4060   -6.1910 O.2   268  ILE268     -0.2718
     96  CB        17.5850  -10.8160   -7.1350 C.3   268  ILE268      0.0266
     97  CG1       16.4450  -10.9480   -8.1500 C.3   268  ILE268      0.0019
     98  CG2       18.2500  -12.1460   -6.8510 C.3   268  ILE268      0.0020
     99  CD1       16.8950  -11.2420   -9.5650 C.3   268  ILE268      0.0001
    100  N         17.6840   -8.0390   -6.5660 N.am  269  LEU269     -0.1966
    101  CA        17.5200   -6.6760   -7.0160 C.3   269  LEU269      0.1728
    102  C         17.7290   -6.8020   -8.5180 C.2   269  LEU269      0.2617
    103  O         16.9320   -7.4340   -9.1970 O.2   269  LEU269     -0.2715
    104  CB        18.5760   -5.7620   -6.3870 C.3   269  LEU269      0.0311
    105  CG        18.5370   -5.5610   -4.8690 C.3   269  LEU269      0.0022
    106  CD1       19.6390   -4.6000   -4.4710 C.3   269  LEU269      0.0001
    107  CD2       17.1850   -5.0130   -4.4270 C.3   269  LEU269      0.0001
    108  N         18.8000   -6.2380   -9.0520 N.am  270  THR270     -0.1937
    109  CA        19.0280   -6.3670  -10.4850 C.3   270  THR270      0.2028
    110  C         19.4530   -7.8120  -10.7970 C.2   270  THR270      0.2642
    111  O         20.3070   -8.3730  -10.1200 O.2   270  THR270     -0.2714
    112  CB        20.0860   -5.3320  -10.9700 C.3   270  THR270      0.1808
    113  OG1       20.5980   -5.7230  -12.2500 O.3   270  THR270     -0.2208
    114  CG2       21.2290   -5.2150   -9.9590 C.3   270  THR270      0.0379
    115  N         18.8410   -8.4130  -11.8130 N.am  271  GLY271     -0.1954
    116  CA        19.1520   -9.7900  -12.1720 C.3   271  GLY271      0.1869
    117  C         20.5350  -10.0730  -12.7300 C.2   271  GLY271      0.2309
    118  O         21.1850   -9.1990  -13.2920 O.2   271  GLY271     -0.2863
    119  N         21.5920  -11.5670  -15.4210 N.3   273  PRO273     -0.2102
    120  CA        21.8860  -11.2100  -16.8100 C.3   273  PRO273      0.1504
    121  C         22.2150   -9.7270  -16.9330 C.2   273  PRO273      0.2575
    122  O         23.0960   -9.3370  -17.6970 O.2   273  PRO273     -0.2718
    123  CB        20.6010  -11.5840  -17.5450 C.3   273  PRO273      0.0282
    124  CG        20.0580  -12.7150  -16.7250 C.3   273  PRO273      0.0208
    125  CD        20.2820  -12.2320  -15.3140 C.3   273  PRO273      0.0893
    126  N         21.5120   -8.9010  -16.1700 N.am  274  ALA274     -0.1980
    127  CA        21.7490   -7.4650  -16.2260 C.3   274  ALA274      0.1597
    128  C         23.1140   -7.1210  -15.6450 C.2   274  ALA274      0.2287
    129  O         23.8490   -6.3090  -16.2030 O.2   274  ALA274     -0.2864
    130  CB        20.6450   -6.7150  -15.4830 C.3   274  ALA274      0.0319
    131  N         20.4620  -16.5600  -10.8510 N.3   286  ASN286     -0.1240
    132  CA        20.0690  -15.6020   -9.8400 C.3   286  ASN286      0.1653
    133  C         20.3080  -16.1560   -8.4360 C.2   286  ASN286      0.2266
    134  O         20.4950  -15.3950   -7.4870 O.2   286  ASN286     -0.2867
    135  CB        18.6040  -15.2360  -10.0080 C.3   286  ASN286      0.1155
    136  CG        18.3470  -14.4960  -11.2910 C.2   286  ASN286      0.2627
    137  OD1       19.1500  -13.6600  -11.7000 O.2   286  ASN286     -0.2716
    138  ND2       17.2190  -14.7860  -11.9320 N.am  286  ASN286     -0.0877
@<TRIPOS>BOND
     1    53    52    2
     2     8     7    1
     3     8     9    1
     4    57    55    1
     5    52    51    1
     6    55    54    1
     7   122   121    2
     8     7     6    1
     9   123   120    1
    10   123   124    1
    11    54    51    1
    12    54    56    1
    13   121   120    1
    14   121   126   am
    15   120   119    1
    16    51    50    1
    17   124   125    1
    18    16    14    1
    19   127   126    1
    20   127   128    1
    21   127   130    1
    22     6     5    1
    23   129   128    2
    24    17    15    1
    25     2     1    1
    26     2     5    1
    27     2     3    1
    28    50    41   am
    29   119   125    1
    30    15    14    1
    31    44    45    1
    32    44    43    1
    33    45    46    1
    34    14    11    1
    35    10     3   am
    36    10    11    1
    37     3     4    2
    38    41    42    2
    39    41    40    1
    40    46    47    2
    41    11    12    1
    42    48    47    1
    43    47    49    1
    44    43    40    1
    45    40    39    1
    46    23    22    1
    47   118   117    2
    48    68    66    1
    49    22    19    1
    50    67    66    1
    51    12    13    2
    52    29    28    1
    53   117   116    1
    54    37    36    2
    55    28    25    1
    56    66    65    2
    57    39    36   am
    58   113   112    1
    59   116   115    1
    60    36    35    1
    61   138   136   am
    62   115   110   am
    63    18    19    1
    64   137   136    2
    65    27    26    2
    66    19    20    1
    67   136   135    1
    68    25    26    1
    69    25    24    1
    70    65    64    1
    71   112   109    1
    72   112   114    1
    73    26    30   am
    74   131   132    1
    75   110   109    1
    76   110   111    2
    77    20    21    2
    78    35    38    1
    79    35    34    1
    80   109   108    1
    81    33    32    2
    82    64    63    1
    83   135   132    1
    84    32    34   am
    85    32    31    1
    86   132   133    1
    87    30    31    1
    88    99    97    1
    89    74    73    1
    90   103   102    2
    91   108   102   am
    92    75    73    1
    93    63    62    1
    94    73    70    1
    95   102   101    1
    96   133   134    2
    97    97    96    1
    98    62    59    1
    99    70    71    1
   100    70    69    1
   101    96    98    1
   102    96    93    1
   103   101   100    1
   104   101   104    1
   105    71    72    2
   106    71    76   am
   107    76    77    1
   108   100    94   am
   109    59    58    1
   110    59    60    1
   111    77    78    1
   112   104   105    1
   113    94    95    2
   114    94    93    1
   115    61    60    2
   116    93    92    1
   117    78    79    2
   118   105   106    1
   119   105   107    1
   120    86    88   ar
   121    86    85   ar
   122    88    90   ar
   123    80    81    1
   124    85    84    1
   125    85    87   ar
   126    84    81    1
   127    90    91    1
   128    90    89   ar
   129    81    82    1
   130    87    89   ar
   131    82    83    2
