@<TRIPOS>MOLECULE
tmp/1od3A00.pdb
 85 85 0 0 0
SMALL
GASTEIGER

@<TRIPOS>ATOM
      1  N         -6.9850   17.2250    9.1010 N.3    27  PHE27      -0.1241
      2  CA        -8.4240   17.4200    8.9660 C.3    27  PHE27       0.1605
      3  C         -8.7280   18.3130    7.7750 C.2    27  PHE27       0.2264
      4  O         -7.8860   19.0830    7.3060 O.2    27  PHE27      -0.2867
      5  CB        -9.0450   17.9990   10.2670 C.3    27  PHE27       0.0534
      6  CG        -8.3910   19.2640   10.7180 C.ar   27  PHE27      -0.0203
      7  CD1       -7.3310   19.2640   11.5610 C.ar   27  PHE27      -0.0042
      8  CD2       -8.7990   20.4710   10.2310 C.ar   27  PHE27      -0.0042
      9  CE1       -6.7120   20.5230   11.9170 C.ar   27  PHE27      -0.0003
     10  CE2       -8.1960   21.6480   10.5890 C.ar   27  PHE27      -0.0003
     11  CZ        -7.2010   21.6570   11.3850 C.ar   27  PHE27      -0.0000
     12  N         -3.1880   19.9740   12.7360 N.3    37  GLY37      -0.1210
     13  CA        -3.5000   20.6720   13.9590 C.3    37  GLY37       0.1956
     14  C         -3.5460   19.7040   15.1430 C.2    37  GLY37       0.2612
     15  O         -2.9830   18.6080   15.0970 O.2    37  GLY37      -0.2717
     16  N         -4.1730   20.1690   16.2360 N.am   38  TYR38      -0.1962
     17  CA        -4.0850   19.4810   17.5400 C.3    38  TYR38       0.1771
     18  C         -2.6220   19.3000   17.9420 C.2    38  TYR38       0.2619
     19  O         -2.2150   18.2960   18.5220 O.2    38  TYR38      -0.2715
     20  CB        -4.9180   18.1960   17.5680 C.3    38  TYR38       0.0574
     21  CG        -6.3540   18.4700   17.1430 C.ar   38  TYR38      -0.0198
     22  CD1       -7.3340   18.6980   18.0880 C.ar   38  TYR38      -0.0009
     23  CD2       -6.7140   18.5340   15.7920 C.ar   38  TYR38      -0.0009
     24  CE1       -8.6440   19.0230   17.7260 C.ar   38  TYR38       0.0417
     25  CE2       -8.0380   18.8540   15.4100 C.ar   38  TYR38       0.0417
     26  CZ        -8.9870   19.0660   16.4010 C.ar   38  TYR38       0.1957
     27  OH       -10.2790   19.3920   16.0380 O.3    38  TYR38      -0.2866
     28  N         -1.8590   20.3550   17.6730 N.am   39  ILE39      -0.1963
     29  CA        -0.4310   20.4290   17.9360 C.3    39  ILE39       0.1727
     30  C         -0.1400   20.9370   19.3340 C.2    39  ILE39       0.2616
     31  O         -0.8770   21.7580   19.8890 O.2    39  ILE39      -0.2715
     32  CB         0.2210   21.2840   16.8030 C.3    39  ILE39       0.0290
     33  CG1        0.2880   20.4520   15.5100 C.3    39  ILE39       0.0022
     34  CG2        1.5740   21.8490   17.1560 C.3    39  ILE39       0.0023
     35  CD1        0.5750   21.2430   14.2550 C.3    39  ILE39       0.0001
     36  N          0.9600   20.4430   19.9060 N.am   40  GLU40      -0.1977
     37  CA         1.4380   20.8030   21.2160 C.3    40  GLU40       0.1602
     38  C          2.9150   21.1430   21.1490 C.2    40  GLU40       0.2287
     39  O          3.6190   20.7540   20.2160 O.2    40  GLU40      -0.2864
     40  CB         1.2130   19.6290   22.2210 C.3    40  GLU40       0.0415
     41  CG        -0.2110   19.0630   22.2160 C.3    40  GLU40       0.1163
     42  CD        -1.2490   20.0570   22.6610 C.2    40  GLU40       0.3649
     43  OE1       -0.8430   21.0530   23.3480 O.co2  40  GLU40      -0.2457
     44  OE2       -2.4550   19.8500   22.4220 O.co2  40  GLU40      -0.2457
     45  N         -8.8180   29.5190   15.2840 N.3    94  PHE94      -0.1227
     46  CA        -8.2520   28.3250   14.6420 C.3    94  PHE94       0.1736
     47  C         -8.8110   28.0430   13.2610 C.2    94  PHE94       0.2595
     48  O         -8.2340   27.2140   12.5690 O.2    94  PHE94      -0.2718
     49  CB        -8.3850   27.0890   15.5600 C.3    94  PHE94       0.0547
     50  CG        -7.3560   27.0610   16.6720 C.ar   94  PHE94      -0.0202
     51  CD1       -6.0020   26.8280   16.3960 C.ar   94  PHE94      -0.0042
     52  CD2       -7.7070   27.2340   17.9950 C.ar   94  PHE94      -0.0042
     53  CE1       -5.0610   26.7650   17.3880 C.ar   94  PHE94      -0.0003
     54  CE2       -6.7480   27.1980   19.0120 C.ar   94  PHE94      -0.0003
     55  CZ        -5.4240   26.9420   18.7000 C.ar   94  PHE94      -0.0000
     56  N         -9.8810   28.7300   12.8680 N.am   95  ASP95      -0.1974
     57  CA       -10.4520   28.5680   11.5250 C.3    95  ASP95       0.1709
     58  C        -10.1280   29.7140   10.5930 C.2    95  ASP95       0.2293
     59  O        -10.5240   29.6420    9.4390 O.2    95  ASP95      -0.2864
     60  CB       -11.9550   28.4050   11.6270 C.3    95  ASP95       0.1436
     61  CG       -12.3090   27.2440   12.5080 C.2    95  ASP95       0.3671
     62  OD1      -11.7470   26.1610   12.2600 O.co2  95  ASP95      -0.2456
     63  OD2      -13.1040   27.3400   13.4620 O.co2  95  ASP95      -0.2456
     64  N          0.1060   25.3940   20.2170 N.3   120  PRO120     -0.2102
     65  CA        -0.9920   25.1400   19.2710 C.3   120  PRO120      0.1504
     66  C         -0.9880   26.0960   18.0810 C.2   120  PRO120      0.2576
     67  O         -0.9210   27.3250   18.2220 O.2   120  PRO120     -0.2718
     68  CB        -2.2450   25.3100   20.1360 C.3   120  PRO120      0.0282
     69  CG        -1.7470   24.9150   21.5340 C.3   120  PRO120      0.0208
     70  CD        -0.3630   25.5140   21.6220 C.3   120  PRO120      0.0893
     71  N         -1.1230   25.5020   16.8960 N.am  121  VAL121     -0.1966
     72  CA        -1.2170   26.2110   15.6210 C.3   121  VAL121      0.1727
     73  C         -1.7480   25.2090   14.6230 C.2   121  VAL121      0.2616
     74  O         -1.4640   24.0180   14.7360 O.2   121  VAL121     -0.2715
     75  CB         0.1690   26.7710   15.1880 C.3   121  VAL121      0.0290
     76  CG1        1.1830   25.6880   14.9540 C.3   121  VAL121      0.0023
     77  CG2        0.0420   27.6690   13.9670 C.3   121  VAL121      0.0023
     78  N         -2.5070   25.6710   13.6390 N.am  122  ASN122     -0.1972
     79  CA        -2.8980   24.8400   12.4980 C.3   122  ASN122      0.1688
     80  C         -2.1300   25.3310   11.2860 C.2   122  ASN122      0.2292
     81  O         -1.9460   26.5420   11.0800 O.2   122  ASN122     -0.2864
     82  CB        -4.4040   24.9690   12.2280 C.3   122  ASN122      0.1181
     83  CG        -5.2340   24.4580   13.3660 C.2   122  ASN122      0.2629
     84  OD1       -4.7590   23.6800   14.1770 O.2   122  ASN122     -0.2716
     85  ND2       -6.4870   24.8400   13.4120 N.am  122  ASN122     -0.0877
@<TRIPOS>BOND
     1     4     3    2
     2     3     2    1
     3     2     1    1
     4     2     5    1
     5    59    58    2
     6     8    10   ar
     7     8     6   ar
     8     5     6    1
     9    10    11   ar
    10    58    57    1
    11     6     7   ar
    12    81    80    2
    13    80    79    1
    14    11     9   ar
    15    57    60    1
    16    57    56    1
    17     7     9   ar
    18    60    61    1
    19    82    79    1
    20    82    83    1
    21    62    61   ar
    22    79    78    1
    23    61    63   ar
    24    48    47    2
    25    12    13    1
    26    56    47   am
    27    47    46    1
    28    83    85   am
    29    83    84    2
    30    78    73   am
    31    13    14    1
    32    77    75    1
    33    35    33    1
    34    73    74    2
    35    73    72    1
    36    46    45    1
    37    46    49    1
    38    76    75    1
    39    15    14    2
    40    14    16   am
    41    75    72    1
    42    25    23   ar
    43    25    26   ar
    44    33    32    1
    45    49    50    1
    46    72    71    1
    47    23    21   ar
    48    27    26    1
    49    16    17    1
    50    51    50   ar
    51    51    53   ar
    52    26    24   ar
    53    50    52   ar
    54    32    34    1
    55    32    29    1
    56    71    66   am
    57    21    20    1
    58    21    22   ar
    59    53    55   ar
    60    17    20    1
    61    17    18    1
    62    28    29    1
    63    28    18   am
    64    24    22   ar
    65    29    30    1
    66    18    19    2
    67    52    54   ar
    68    66    67    2
    69    66    65    1
    70    55    54   ar
    71    65    68    1
    72    65    64    1
    73    30    31    2
    74    30    36   am
    75    36    37    1
    76    68    69    1
    77    39    38    2
    78    64    70    1
    79    38    37    1
    80    37    40    1
    81    69    70    1
    82    41    40    1
    83    41    42    1
    84    44    42   ar
    85    42    43   ar
