@<TRIPOS>MOLECULE
tmp/1od6A00.pdb
 146 141 0 0 0
SMALL
GASTEIGER

@<TRIPOS>ATOM
      1  N         69.3950   16.0010  -32.1980 N.3     6  PRO6       -0.2102
      2  CA        68.8690   16.4980  -33.4710 C.3     6  PRO6        0.1504
      3  C         68.8700   18.0110  -33.6320 C.2     6  PRO6        0.2576
      4  O         68.8460   18.7560  -32.6490 O.2     6  PRO6       -0.2718
      5  CB        67.4560   15.9500  -33.4680 C.3     6  PRO6        0.0282
      6  CG        67.0600   16.2170  -32.0250 C.3     6  PRO6        0.0208
      7  CD        68.2990   15.8000  -31.2270 C.3     6  PRO6        0.0893
      8  N         68.8720   18.4520  -34.8870 N.am    7  GLY7       -0.1943
      9  CA        68.8430   19.8740  -35.1760 C.3     7  GLY7        0.2014
     10  C         69.1200   20.1740  -36.6340 C.2     7  GLY7        0.2640
     11  O         69.4660   19.2730  -37.3980 O.2     7  GLY7       -0.2714
     12  N         68.9500   21.4320  -37.0280 N.am    8  SER8       -0.1935
     13  CA        69.2660   21.7890  -38.3900 C.3     8  SER8        0.2055
     14  C         70.7120   22.2320  -38.4670 C.2     8  SER8        0.2643
     15  O         71.3980   22.0310  -39.4610 O.2     8  SER8       -0.2714
     16  CB        68.3450   22.9350  -38.8090 C.3     8  SER8        0.2130
     17  OG        68.5170   24.0310  -37.9110 O.3     8  SER8       -0.2179
     18  N         71.2300   22.8010  -37.3780 N.am    9  PHE9       -0.1973
     19  CA        72.6400   23.2030  -37.3060 C.3     9  PHE9        0.1639
     20  C         73.0650   23.9490  -38.5670 C.2     9  PHE9        0.2290
     21  O         73.9750   23.5230  -39.2910 O.2     9  PHE9       -0.2864
     22  CB        73.5120   21.9570  -37.1140 C.3     9  PHE9        0.0560
     23  CG        73.0760   21.0860  -35.9660 C.ar    9  PHE9       -0.0200
     24  CD1       73.1370   21.5570  -34.6550 C.ar    9  PHE9       -0.0042
     25  CD2       72.6070   19.7940  -36.1910 C.ar    9  PHE9       -0.0042
     26  CE1       72.7390   20.7510  -33.5830 C.ar    9  PHE9       -0.0003
     27  CE2       72.2060   18.9780  -35.1270 C.ar    9  PHE9       -0.0003
     28  CZ        72.2720   19.4550  -33.8210 C.ar    9  PHE9       -0.0000
     29  N         75.7970   24.6980  -29.7040 N.3    16  HIS16      -0.1241
     30  CA        75.5480   23.3120  -30.1120 C.3    16  HIS16       0.1621
     31  C         76.7320   22.4350  -29.7300 C.2    16  HIS16       0.2264
     32  O         76.5660   21.3630  -29.1460 O.2    16  HIS16      -0.2867
     33  CB        75.3890   23.1860  -31.6270 C.3    16  HIS16       0.0745
     34  CG        74.2920   24.0160  -32.2080 C.ar   16  HIS16       0.0817
     35  ND1       72.9860   23.9390  -31.7760 N.ar   16  HIS16      -0.2268
     36  CD2       74.3020   24.9110  -33.2230 C.ar   16  HIS16       0.1154
     37  CE1       72.2380   24.7520  -32.5010 C.ar   16  HIS16       0.1986
     38  NE2       73.0130   25.3530  -33.3860 N.ar   16  HIS16      -0.2212
     39  N         68.9860   17.5570  -39.7620 N.3    35  LEU35      -0.1245
     40  CA        67.7560   17.5950  -40.5470 C.3    35  LEU35       0.1561
     41  C         67.9730   17.9820  -42.0080 C.2    35  LEU35       0.2260
     42  O         68.6220   18.9840  -42.3070 O.2    35  LEU35      -0.2867
     43  CB        66.7540   18.5660  -39.9110 C.3    35  LEU35       0.0270
     44  CG        65.3810   18.6450  -40.5880 C.3    35  LEU35       0.0019
     45  CD1       64.6850   17.2940  -40.4960 C.3    35  LEU35       0.0001
     46  CD2       64.5400   19.7260  -39.9240 C.3    35  LEU35       0.0001
     47  N         69.1440   13.1260  -41.7520 N.3    65  PHE65      -0.1241
     48  CA        67.9180   12.3470  -41.7120 C.3    65  PHE65       0.1605
     49  C         66.7770   13.1720  -42.2700 C.2    65  PHE65       0.2264
     50  O         66.8210   14.4010  -42.2660 O.2    65  PHE65      -0.2867
     51  CB        67.5990   11.8960  -40.2770 C.3    65  PHE65       0.0534
     52  CG        66.9390   12.9540  -39.4260 C.ar   65  PHE65      -0.0203
     53  CD1       65.5520   12.9870  -39.2830 C.ar   65  PHE65      -0.0042
     54  CD2       67.7010   13.9110  -38.7650 C.ar   65  PHE65      -0.0042
     55  CE1       64.9370   13.9540  -38.4920 C.ar   65  PHE65      -0.0003
     56  CE2       67.0950   14.8860  -37.9700 C.ar   65  PHE65      -0.0003
     57  CZ        65.7080   14.9070  -37.8330 C.ar   65  PHE65      -0.0000
     58  N         62.2480   13.0360  -42.6880 N.3    67  GLY67      -0.1210
     59  CA        61.0930   12.4070  -42.0770 C.3    67  GLY67       0.1956
     60  C         61.0450   12.6400  -40.5770 C.2    67  GLY67       0.2612
     61  O         61.5470   13.6520  -40.0820 O.2    67  GLY67      -0.2717
     62  N         60.4540   11.6970  -39.8520 N.am   68  LEU68      -0.1965
     63  CA        60.3140   11.8130  -38.4040 C.3    68  LEU68       0.1728
     64  C         61.5700   11.4740  -37.6200 C.2    68  LEU68       0.2616
     65  O         62.2270   10.4630  -37.8730 O.2    68  LEU68      -0.2715
     66  CB        59.1740   10.9200  -37.9110 C.3    68  LEU68       0.0311
     67  CG        57.7730   11.2350  -38.4390 C.3    68  LEU68       0.0022
     68  CD1       56.7960   10.1910  -37.9220 C.3    68  LEU68       0.0001
     69  CD2       57.3550   12.6300  -38.0000 C.3    68  LEU68       0.0001
     70  N         61.8900   12.3280  -36.6530 N.am   69  LEU69      -0.1963
     71  CA        63.0510   12.1160  -35.8060 C.3    69  LEU69       0.1728
     72  C         62.9520   10.7730  -35.0890 C.2    69  LEU69       0.2616
     73  O         63.9370   10.0450  -34.9900 O.2    69  LEU69      -0.2715
     74  CB        63.1590   13.2380  -34.7680 C.3    69  LEU69       0.0311
     75  CG        64.2010   13.0060  -33.6710 C.3    69  LEU69       0.0022
     76  CD1       65.5900   12.8770  -34.2940 C.3    69  LEU69       0.0001
     77  CD2       64.1560   14.1570  -32.6770 C.3    69  LEU69       0.0001
     78  N         61.7640   10.4360  -34.5920 N.am   70  VAL70      -0.1977
     79  CA        61.6060    9.1720  -33.8790 C.3    70  VAL70       0.1596
     80  C         61.9630    7.9660  -34.7370 C.2    70  VAL70       0.2287
     81  O         62.4190    6.9530  -34.2140 O.2    70  VAL70      -0.2864
     82  CB        60.1740    8.9900  -33.3190 C.3    70  VAL70       0.0276
     83  CG1       59.9120   10.0250  -32.2310 C.3    70  VAL70       0.0022
     84  CG2       59.1530    9.1110  -34.4340 C.3    70  VAL70       0.0022
     85  N         68.6370   17.2680  -25.8650 N.3    83  LYS83      -0.1245
     86  CA        68.5080   18.6140  -26.4180 C.3    83  LYS83       0.1561
     87  C         69.1530   19.5760  -25.4430 C.2    83  LYS83       0.2260
     88  O         69.2220   19.3070  -24.2450 O.2    83  LYS83      -0.2867
     89  CB        67.0330   19.0050  -26.6020 C.3    83  LYS83       0.0271
     90  CG        66.2370   18.1080  -27.5470 C.3    83  LYS83       0.0035
     91  CD        66.7890   18.1410  -28.9730 C.3    83  LYS83       0.0206
     92  CE        66.5220   19.4730  -29.6600 C.3    83  LYS83       0.1093
     93  NZ        65.0670   19.6500  -29.9500 N.3    83  LYS83      -0.1314
     94  N         58.3640   25.2740  -26.9040 N.3    93  TYR93      -0.1227
     95  CA        58.5200   24.4710  -28.1120 C.3    93  TYR93       0.1736
     96  C         59.2450   23.1540  -27.8500 C.2    93  TYR93       0.2595
     97  O         58.8450   22.1110  -28.3630 O.2    93  TYR93      -0.2718
     98  CB        59.2610   25.2660  -29.1880 C.3    93  TYR93       0.0548
     99  CG        59.2980   24.5740  -30.5310 C.ar   93  TYR93      -0.0200
    100  CD1       58.1280   24.0940  -31.1200 C.ar   93  TYR93      -0.0009
    101  CD2       60.5000   24.4040  -31.2190 C.ar   93  TYR93      -0.0009
    102  CE1       58.1520   23.4600  -32.3600 C.ar   93  TYR93       0.0417
    103  CE2       60.5350   23.7720  -32.4620 C.ar   93  TYR93       0.0417
    104  CZ        59.3580   23.3020  -33.0250 C.ar   93  TYR93       0.1957
    105  OH        59.3840   22.6740  -34.2500 O.3    93  TYR93      -0.2866
    106  N         60.3100   23.2040  -27.0540 N.am   94  GLU94      -0.1979
    107  CA        61.0660   21.9980  -26.7300 C.3    94  GLU94       0.1602
    108  C         60.1980   21.0390  -25.9240 C.2    94  GLU94       0.2287
    109  O         60.2410   19.8290  -26.1310 O.2    94  GLU94      -0.2864
    110  CB        62.3200   22.3550  -25.9300 C.3    94  GLU94       0.0415
    111  CG        63.3600   23.1220  -26.7310 C.3    94  GLU94       0.1163
    112  CD        64.0220   22.2750  -27.8080 C.2    94  GLU94       0.3649
    113  OE1       64.7650   22.8420  -28.6370 O.co2  94  GLU94      -0.2457
    114  OE2       63.8090   21.0430  -27.8260 O.co2  94  GLU94      -0.2457
    115  N         57.6610   19.3640  -28.3650 N.3    97  MET97      -0.1245
    116  CA        58.2490   18.2990  -29.1730 C.3    97  MET97       0.1570
    117  C         58.5950   17.0870  -28.3310 C.2    97  MET97       0.2261
    118  O         58.4180   15.9490  -28.7690 O.2    97  MET97      -0.2867
    119  CB        59.5090   18.7830  -29.8940 C.3    97  MET97       0.0387
    120  CG        59.2420   19.7810  -31.0010 C.3    97  MET97       0.0595
    121  SD        60.7070   20.0310  -32.0140 S.3    97  MET97      -0.1393
    122  CE        61.7180   20.9780  -30.9020 C.3    97  MET97       0.0692
    123  N         55.3540   15.2190  -27.6960 N.3   100  LEU100     -0.1231
    124  CA        54.8580   14.5870  -28.9120 C.3   100  LEU100      0.1693
    125  C         55.7220   13.3910  -29.3170 C.2   100  LEU100      0.2592
    126  O         55.2310   12.3430  -29.7170 O.2   100  LEU100     -0.2718
    127  CB        54.8590   15.6320  -30.0280 C.3   100  LEU100      0.0284
    128  CG        53.7970   16.7140  -29.8190 C.3   100  LEU100      0.0019
    129  CD1       53.7500   17.7170  -30.9730 C.3   100  LEU100      0.0001
    130  CD2       52.3850   16.1430  -29.6900 C.3   100  LEU100      0.0001
    131  N         57.0420   13.5370  -29.2140 N.am  101  ASN101     -0.1974
    132  CA        57.9330   12.4390  -29.5750 C.3   101  ASN101      0.1688
    133  C         57.7510   11.2450  -28.6430 C.2   101  ASN101      0.2292
    134  O         57.9130   10.0940  -29.0570 O.2   101  ASN101     -0.2864
    135  CB        59.4010   12.8930  -29.5620 C.3   101  ASN101      0.1181
    136  CG        59.7560   13.7350  -30.7740 C.2   101  ASN101      0.2629
    137  OD1       59.1900   13.5490  -31.8520 O.2   101  ASN101     -0.2716
    138  ND2       60.7060   14.6540  -30.6120 N.am  101  ASN101     -0.0877
    139  N         54.7360    9.4660  -30.1590 N.3   104  LEU104     -0.1245
    140  CA        55.0080    8.8180  -31.4430 C.3   104  LEU104      0.1561
    141  C         55.8230    7.5420  -31.2690 C.2   104  LEU104      0.2260
    142  O         55.5610    6.5300  -31.9200 O.2   104  LEU104     -0.2867
    143  CB        55.7380    9.7840  -32.3750 C.3   104  LEU104      0.0270
    144  CG        54.9070   10.9770  -32.8520 C.3   104  LEU104      0.0019
    145  CD1       55.7830   11.9420  -33.6390 C.3   104  LEU104      0.0001
    146  CD2       53.7510   10.4740  -33.7130 C.3   104  LEU104      0.0001
@<TRIPOS>BOND
     1    58    59    1
     2    42    41    2
     3    49    50    2
     4    49    48    1
     5    59    60    1
     6    41    40    1
     7    47    48    1
     8    48    51    1
     9    44    45    1
    10    44    46    1
    11    44    43    1
    12    60    61    2
    13    60    62   am
    14    40    43    1
    15    40    39    1
    16    51    52    1
    17    62    63    1
    18    15    14    2
    19    52    53   ar
    20    52    54   ar
    21    21    20    2
    22    53    55   ar
    23    16    13    1
    24    16    17    1
    25    54    56   ar
    26    20    19    1
    27    55    57   ar
    28    14    13    1
    29    14    18   am
    30    67    69    1
    31    67    68    1
    32    67    66    1
    33    63    66    1
    34    63    64    1
    35    13    12    1
    36    56    57   ar
    37    65    64    2
    38    64    70   am
    39    11    10    2
    40    18    19    1
    41    19    22    1
    42    22    23    1
    43    12    10   am
    44    70    71    1
    45    10     9    1
    46    25    23   ar
    47    25    27   ar
    48    23    24   ar
    49    71    72    1
    50    71    74    1
    51     9     8    1
    52    27    28   ar
    53    72    73    2
    54    72    78   am
    55     8     3   am
    56    74    75    1
    57    80    81    2
    58    80    79    1
    59    24    26   ar
    60    78    79    1
    61    84    82    1
    62    76    75    1
    63   105   104    1
    64    79    82    1
    65    28    26   ar
    66   146   144    1
    67    75    77    1
    68   145   144    1
    69     3     2    1
    70     3     4    2
    71     2     5    1
    72     2     1    1
    73     5     6    1
    74    38    36   ar
    75    38    37   ar
    76    82    83    1
    77    36    34   ar
    78   104   103   ar
    79   104   102   ar
    80   144   143    1
    81    37    35   ar
    82   103   101   ar
    83   143   140    1
    84   102   100   ar
    85    34    35   ar
    86    34    33    1
    87     1     7    1
    88     6     7    1
    89   121   120    1
    90   121   122    1
    91   142   141    2
    92   137   136    2
    93    33    30    1
    94   140   141    1
    95   140   139    1
    96   101    99   ar
    97   100    99   ar
    98   120   119    1
    99   129   128    1
   100   136   138   am
   101   136   135    1
   102    99    98    1
   103    30    31    1
   104    30    29    1
   105   127   128    1
   106   127   124    1
   107    93    92    1
   108   119   116    1
   109   128   130    1
   110    31    32    2
   111   126   125    2
   112    92    91    1
   113   132   135    1
   114   132   131    1
   115   132   133    1
   116   125   131   am
   117   125   124    1
   118    98    95    1
   119   116   115    1
   120   116   117    1
   121   134   133    2
   122    91    90    1
   123   124   123    1
   124   118   117    2
   125   113   112   ar
   126    97    96    2
   127    95    96    1
   128    95    94    1
   129    96   106   am
   130   114   112   ar
   131   112   111    1
   132    90    89    1
   133   106   107    1
   134   111   110    1
   135   107   110    1
   136   107   108    1
   137    89    86    1
   138    86    85    1
   139    86    87    1
   140   109   108    2
   141    87    88    2
