@<TRIPOS>MOLECULE
tmp/1od7A00.pdb
 113 113 0 0 0
SMALL
GASTEIGER

@<TRIPOS>ATOM
      1  N         59.2950   35.6630   23.7820 N.3     2  TRP2       -0.1241
      2  CA        59.3510   34.2050   23.7120 C.3     2  TRP2        0.1605
      3  C         60.1900   33.5610   24.8150 C.2     2  TRP2        0.2264
      4  O         61.3050   34.0040   25.0910 O.2     2  TRP2       -0.2867
      5  CB        59.9220   33.7630   22.3650 C.3     2  TRP2        0.0550
      6  CG        58.9940   33.9120   21.2260 C.ar    2  TRP2        0.0003
      7  CD1       59.0280   34.8690   20.2580 C.ar    2  TRP2        0.0946
      8  CD2       57.8910   33.0590   20.9150 C.ar    2  TRP2        0.0152
      9  NE1       58.0120   34.6650   19.3540 N.ar    2  TRP2       -0.2442
     10  CE2       57.2970   33.5590   19.7340 C.ar    2  TRP2        0.0810
     11  CE3       57.3450   31.9170   21.5180 C.ar    2  TRP2        0.0012
     12  CZ2       56.1810   32.9560   19.1410 C.ar    2  TRP2        0.0191
     13  CZ3       56.2360   31.3160   20.9280 C.ar    2  TRP2        0.0001
     14  CH2       55.6670   31.8380   19.7500 C.ar    2  TRP2        0.0015
     15  N         65.7500   15.1650   25.2240 N.3    44  TYR44      -0.1227
     16  CA        65.6480   15.6830   23.8650 C.3    44  TYR44       0.1736
     17  C         66.8730   15.3980   23.0010 C.2    44  TYR44       0.2596
     18  O         66.7380   14.9940   21.8450 O.2    44  TYR44      -0.2718
     19  CB        65.3970   17.1920   23.8780 C.3    44  TYR44       0.0548
     20  CG        64.8540   17.7050   22.5630 C.ar   44  TYR44      -0.0200
     21  CD1       63.5050   17.5720   22.2500 C.ar   44  TYR44      -0.0009
     22  CD2       65.6950   18.2670   21.6070 C.ar   44  TYR44      -0.0009
     23  CE1       63.0090   17.9780   21.0260 C.ar   44  TYR44       0.0417
     24  CE2       65.2030   18.6770   20.3690 C.ar   44  TYR44       0.0417
     25  CZ        63.8580   18.5270   20.0840 C.ar   44  TYR44       0.1957
     26  OH        63.3560   18.9080   18.8540 O.3    44  TYR44      -0.2866
     27  N         68.0650   15.6160   23.5560 N.am   45  SER45      -0.1952
     28  CA        69.3130   15.3890   22.8210 C.3    45  SER45       0.1924
     29  C         69.8150   13.9460   22.9130 C.2    45  SER45       0.2314
     30  O         70.9900   13.6680   22.6680 O.2    45  SER45      -0.2863
     31  CB        70.3990   16.3480   23.3150 C.3    45  SER45       0.2116
     32  OG        70.1660   17.6690   22.8580 O.3    45  SER45      -0.2180
     33  N         62.2250   18.8750   28.7850 N.3    95  ASN95      -0.1240
     34  CA        62.1430   20.1630   28.1130 C.3    95  ASN95       0.1653
     35  C         60.7350   20.3620   27.5900 C.2    95  ASN95       0.2266
     36  O         60.1720   19.4740   26.9450 O.2    95  ASN95      -0.2867
     37  CB        63.1400   20.2350   26.9480 C.3    95  ASN95       0.1155
     38  CG        64.5620   19.9440   27.3790 C.2    95  ASN95       0.2627
     39  OD1       64.9130   18.7980   27.6630 O.2    95  ASN95      -0.2716
     40  ND2       65.3880   20.9820   27.4400 N.am   95  ASN95      -0.0877
     41  N         57.7950   22.3340   25.2940 N.3    97  ARG97      -0.1245
     42  CA        57.6680   22.9590   23.9830 C.3    97  ARG97       0.1563
     43  C         56.2070   23.2260   23.6860 C.2    97  ARG97       0.2260
     44  O         55.3590   22.3880   23.9670 O.2    97  ARG97      -0.2867
     45  CB        58.2120   22.0560   22.8840 C.3    97  ARG97       0.0307
     46  CG        57.9750   22.6270   21.4920 C.3    97  ARG97       0.0489
     47  CD        58.0340   21.5510   20.4430 C.3    97  ARG97       0.2205
     48  NE        57.7830   22.0480   19.0920 N.pl3  97  ARG97      -0.0865
     49  CZ        58.5940   22.8640   18.4170 C.cat  97  ARG97       0.5346
     50  NH1       59.7240   23.2970   18.9680 N.pl3  97  ARG97       0.1354
     51  NH2       58.2890   23.2160   17.1680 N.pl3  97  ARG97       0.1354
     52  N         55.6680   28.8590   12.3190 N.3   103  SER103     -0.1202
     53  CA        56.9340   29.4020   12.8100 C.3   103  SER103      0.2020
     54  C         56.8740   29.9060   14.2470 C.2   103  SER103      0.2619
     55  O         57.9060   30.1600   14.8730 O.2   103  SER103     -0.2717
     56  CB        57.4240   30.5160   11.8790 C.3   103  SER103      0.2103
     57  OG        56.3790   31.4180   11.5640 O.3   103  SER103     -0.2182
     58  N         55.6600   30.0520   14.7640 N.am  104  ASN104     -0.1960
     59  CA        55.4720   30.5010   16.1300 C.3   104  ASN104      0.1819
     60  C         55.4190   29.3200   17.0760 C.2   104  ASN104      0.2621
     61  O         54.4300   29.1160   17.7570 O.2   104  ASN104     -0.2715
     62  CB        54.1810   31.2990   16.2640 C.3   104  ASN104      0.1195
     63  CG        54.2790   32.6540   15.6440 C.2   104  ASN104      0.2630
     64  OD1       55.2760   33.3490   15.8120 O.2   104  ASN104     -0.2716
     65  ND2       53.2390   33.0540   14.9330 N.am  104  ASN104     -0.0877
     66  N         56.4730   28.5220   17.0980 N.am  105  ARG105     -0.1963
     67  CA        56.5250   27.3840   17.9990 C.3   105  ARG105      0.1729
     68  C         57.7800   27.6210   18.8140 C.2   105  ARG105      0.2616
     69  O         58.6180   28.4370   18.4360 O.2   105  ARG105     -0.2715
     70  CB        56.6060   26.0650   17.2240 C.3   105  ARG105      0.0348
     71  CG        57.8470   25.9090   16.3730 C.3   105  ARG105      0.0492
     72  CD        57.5380   25.7540   14.8860 C.3   105  ARG105      0.2205
     73  NE        56.7630   24.5540   14.5580 N.pl3 105  ARG105     -0.0865
     74  CZ        55.4330   24.4600   14.6240 C.cat 105  ARG105      0.5346
     75  NH1       54.7070   25.5020   15.0120 N.pl3 105  ARG105      0.1354
     76  NH2       54.8230   23.3260   14.2830 N.pl3 105  ARG105      0.1354
     77  N         57.9190   26.9190   19.9300 N.am  106  TRP106     -0.1960
     78  CA        59.0830   27.1320   20.7670 C.3   106  TRP106      0.1771
     79  C         59.3810   26.0070   21.7410 C.2   106  TRP106      0.2620
     80  O         58.5080   25.5630   22.4840 O.2   106  TRP106     -0.2715
     81  CB        58.8910   28.4280   21.5220 C.3   106  TRP106      0.0590
     82  CG        60.0430   28.8380   22.3170 C.ar  106  TRP106      0.0006
     83  CD1       60.4240   28.3430   23.5210 C.ar  106  TRP106      0.0946
     84  CD2       60.9440   29.8950   22.0080 C.ar  106  TRP106      0.0152
     85  NE1       61.5090   29.0340   23.9940 N.ar  106  TRP106     -0.2442
     86  CE2       61.8490   29.9970   23.0830 C.ar  106  TRP106      0.0810
     87  CE3       61.0740   30.7750   20.9260 C.ar  106  TRP106      0.0012
     88  CZ2       62.8700   30.9440   23.1110 C.ar  106  TRP106      0.0191
     89  CZ3       62.0880   31.7150   20.9500 C.ar  106  TRP106      0.0001
     90  CH2       62.9730   31.7930   22.0380 C.ar  106  TRP106      0.0015
     91  N         60.6310   25.5590   21.7250 N.am  107  LEU107     -0.1963
     92  CA        61.1020   24.4980   22.6010 C.3   107  LEU107      0.1728
     93  C         62.1120   25.1150   23.5630 C.2   107  LEU107      0.2616
     94  O         63.0830   25.7370   23.1220 O.2   107  LEU107     -0.2715
     95  CB        61.7690   23.4020   21.7730 C.3   107  LEU107      0.0311
     96  CG        62.6010   22.3630   22.5230 C.3   107  LEU107      0.0022
     97  CD1       61.7210   21.5380   23.4280 C.3   107  LEU107      0.0001
     98  CD2       63.3050   21.4820   21.5300 C.3   107  LEU107      0.0001
     99  N         61.8870   24.9470   24.8670 N.am  108  ASP108     -0.1957
    100  CA        62.7920   25.5190   25.8640 C.3   108  ASP108      0.1840
    101  C         64.1660   24.8710   25.8680 C.2   108  ASP108      0.2621
    102  O         64.2800   23.6590   26.0340 O.2   108  ASP108     -0.2715
    103  CB        62.1890   25.4270   27.2670 C.3   108  ASP108      0.1450
    104  CG        63.1360   25.9440   28.3330 C.2   108  ASP108      0.3671
    105  OD1       63.9370   26.8360   28.0000 O.co2 108  ASP108     -0.2456
    106  OD2       63.0780   25.4760   29.4890 O.co2 108  ASP108     -0.2456
    107  N         65.2070   25.6860   25.6960 N.am  109  VAL109     -0.1977
    108  CA        66.5820   25.1830   25.6660 C.3   109  VAL109      0.1596
    109  C         67.1170   24.8140   27.0400 C.2   109  VAL109      0.2287
    110  O         68.0240   23.9900   27.1530 O.2   109  VAL109     -0.2864
    111  CB        67.5550   26.2100   25.0630 C.3   109  VAL109      0.0276
    112  CG1       67.5580   27.4720   25.8970 C.3   109  VAL109      0.0022
    113  CG2       68.9540   25.6160   24.9960 C.3   109  VAL109      0.0022
@<TRIPOS>BOND
     1    57    56    1
     2    56    53    1
     3    52    53    1
     4    53    54    1
     5    54    58   am
     6    54    55    2
     7    76    74    1
     8    73    74    2
     9    73    72    1
    10    74    75    1
    11    58    59    1
    12    72    71    1
    13    65    63   am
    14    63    64    2
    15    63    62    1
    16    59    62    1
    17    59    60    1
    18    71    70    1
    19    60    66   am
    20    60    61    2
    21    66    67    1
    22    51    49    1
    23    70    67    1
    24    67    68    1
    25    49    50    1
    26    49    48    2
    27    69    68    2
    28    68    77   am
    29    26    25    1
    30    48    47    1
    31    12    10   ar
    32    12    14   ar
    33     9    10   ar
    34     9     7   ar
    35    10     8   ar
    36    14    13   ar
    37    77    78    1
    38    25    24   ar
    39    25    23   ar
    40     7     6   ar
    41    24    22   ar
    42    47    46    1
    43    78    81    1
    44    78    79    1
    45     8     6   ar
    46     8    11   ar
    47    87    89   ar
    48    87    84   ar
    49    13    11   ar
    50    89    90   ar
    51    23    21   ar
    52     6     5    1
    53    46    45    1
    54    81    82    1
    55    98    96    1
    56    22    20   ar
    57    91    79   am
    58    91    92    1
    59    79    80    2
    60    95    96    1
    61    95    92    1
    62    18    17    2
    63    84    82   ar
    64    84    86   ar
    65    90    88   ar
    66    21    20   ar
    67    82    83   ar
    68     5     2    1
    69    96    97    1
    70    20    19    1
    71    92    93    1
    72    30    29    2
    73    28    29    1
    74    28    31    1
    75    28    27    1
    76    32    31    1
    77    45    42    1
    78    17    27   am
    79    17    16    1
    80    86    88   ar
    81    86    85   ar
    82    94    93    2
    83    83    85   ar
    84    93    99   am
    85    43    44    2
    86    43    42    1
    87     2     1    1
    88     2     3    1
    89    16    19    1
    90    16    15    1
    91    42    41    1
    92     3     4    2
    93    99   100    1
    94   113   111    1
    95   111   108    1
    96   111   112    1
    97   108   107    1
    98   108   109    1
    99   107   101   am
   100   100   101    1
   101   100   103    1
   102   101   102    2
   103    36    35    2
   104    37    38    1
   105    37    34    1
   106   109   110    2
   107   103   104    1
   108    38    40   am
   109    38    39    2
   110    35    34    1
   111   105   104   ar
   112    34    33    1
   113   104   106   ar
