@<TRIPOS>MOLECULE
tmp/1od8A01.pdb
 95 94 0 0 0
SMALL
GASTEIGER

@<TRIPOS>ATOM
      1  N         10.2070   29.3650    9.1790 N.3   131  ASP131     -0.1239
      2  CA        10.4780   29.0330    7.8080 C.3   131  ASP131      0.1674
      3  C         10.3960   30.2790    6.9360 C.2   131  ASP131      0.2266
      4  O          9.7720   31.2730    7.2690 O.2   131  ASP131     -0.2867
      5  CB         9.4910   27.9800    7.3430 C.3   131  ASP131      0.1410
      6  CG         9.6980   26.6680    8.0330 C.2   131  ASP131      0.3668
      7  OD1       10.8750   26.2540    8.1780 O.co2 131  ASP131     -0.2456
      8  OD2        8.6850   26.0230    8.4310 O.co2 131  ASP131     -0.2456
      9  N         14.8580   21.9860   11.6100 N.3   171  TYR171     -0.1227
     10  CA        14.6530   21.4660   10.2690 C.3   171  TYR171      0.1736
     11  C         14.7410   22.6150    9.2850 C.2   171  TYR171      0.2595
     12  O         14.6600   23.8040    9.6450 O.2   171  TYR171     -0.2718
     13  CB        13.3010   20.7630   10.1200 C.3   171  TYR171      0.0548
     14  CG        12.1170   21.6970   10.1880 C.ar  171  TYR171     -0.0200
     15  CD1       11.5560   22.0740   11.3940 C.ar  171  TYR171     -0.0009
     16  CD2       11.5550   22.2140    9.0290 C.ar  171  TYR171     -0.0009
     17  CE1       10.4680   22.9310   11.4380 C.ar  171  TYR171      0.0417
     18  CE2       10.4730   23.0700    9.0710 C.ar  171  TYR171      0.0417
     19  CZ         9.9390   23.4280   10.2830 C.ar  171  TYR171      0.1957
     20  OH         8.8600   24.2780   10.3500 O.3   171  TYR171     -0.2866
     21  N         14.8800   22.2810    7.9890 N.am  172  ASN172     -0.1974
     22  CA        15.0270   23.2830    6.9400 C.3   172  ASN172      0.1688
     23  C         16.2750   24.1420    7.1480 C.2   172  ASN172      0.2292
     24  O         16.3370   25.2830    6.7170 O.2   172  ASN172     -0.2864
     25  CB        13.7770   24.1670    6.7750 C.3   172  ASN172      0.1181
     26  CG        12.6710   23.5670    5.9780 C.2   172  ASN172      0.2629
     27  OD1       12.8030   22.4850    5.4190 O.2   172  ASN172     -0.2716
     28  ND2       11.5550   24.2830    5.9360 N.am  172  ASN172     -0.0877
     29  N         20.0770   28.6770    2.3750 N.3   178  TRP178     -0.1241
     30  CA        18.7830   29.1090    2.8540 C.3   178  TRP178      0.1605
     31  C         18.9070   30.1060    4.0150 C.2   178  TRP178      0.2264
     32  O         19.7890   30.0160    4.8680 O.2   178  TRP178     -0.2867
     33  CB        17.9500   27.9150    3.3090 C.3   178  TRP178      0.0550
     34  CG        17.2710   27.1920    2.1680 C.ar  178  TRP178      0.0003
     35  CD1       17.6870   27.0900    0.8790 C.ar  178  TRP178      0.0946
     36  CD2       16.0250   26.4860    2.2430 C.ar  178  TRP178      0.0152
     37  NE1       16.7940   26.3630    0.1420 N.ar  178  TRP178     -0.2442
     38  CE2       15.7570   25.9820    0.9500 C.ar  178  TRP178      0.0810
     39  CE3       15.1160   26.2350    3.2710 C.ar  178  TRP178      0.0012
     40  CZ2       14.6150   25.2460    0.6700 C.ar  178  TRP178      0.0191
     41  CZ3       13.9720   25.4930    2.9760 C.ar  178  TRP178      0.0001
     42  CH2       13.7310   25.0150    1.7000 C.ar  178  TRP178      0.0015
     43  N         14.6520   16.3410    7.3920 N.3   206  HIS206     -0.1241
     44  CA        13.4150   15.8990    6.7550 C.3   206  HIS206      0.1621
     45  C         13.4050   16.3480    5.2950 C.2   206  HIS206      0.2264
     46  O         12.8490   17.3890    4.9590 O.2   206  HIS206     -0.2867
     47  CB        12.1900   16.4520    7.4890 C.3   206  HIS206      0.0745
     48  CG        12.0580   15.9380    8.8710 C.ar  206  HIS206      0.0817
     49  ND1       11.8500   14.5990    9.1370 N.ar  206  HIS206     -0.2268
     50  CD2       12.1140   16.5590   10.0680 C.ar  206  HIS206      0.1154
     51  CE1       11.7920   14.4420   10.4470 C.ar  206  HIS206      0.1986
     52  NE2       11.9350   15.6110   11.0300 N.ar  206  HIS206     -0.2212
     53  N         12.5170   16.4800    1.3840 N.3   208  ASN208     -0.1240
     54  CA        11.3610   16.2220    0.5410 C.3   208  ASN208      0.1653
     55  C         11.3780   17.2190   -0.5920 C.2   208  ASN208      0.2266
     56  O         12.2950   18.0310   -0.7480 O.2   208  ASN208     -0.2867
     57  CB        10.0800   16.3010    1.3640 C.3   208  ASN208      0.1155
     58  CG         9.8990   17.6390    2.0380 C.2   208  ASN208      0.2627
     59  OD1       10.1670   18.6790    1.4500 O.2   208  ASN208     -0.2716
     60  ND2        9.4380   17.6380    3.2810 N.am  208  ASN208     -0.0877
     61  N          9.8140   19.9310   -1.3030 N.3   210  GLY210     -0.1210
     62  CA         9.8560   21.3300   -0.9550 C.3   210  GLY210      0.1956
     63  C         11.1270   21.7580   -0.2370 C.2   210  GLY210      0.2612
     64  O         11.4900   22.9300   -0.2710 O.2   210  GLY210     -0.2717
     65  N         11.7740   20.8010    0.3990 N.am  211  SER211     -0.1952
     66  CA        12.9980   21.0270    1.1650 C.3   211  SER211      0.1924
     67  C         13.9960   19.9580    0.7520 C.2   211  SER211      0.2314
     68  O         14.3090   19.0360    1.5260 O.2   211  SER211     -0.2863
     69  CB        12.7010   20.9150    2.6330 C.3   211  SER211      0.2116
     70  OG        11.7440   21.8850    2.9890 O.3   211  SER211     -0.2180
     71  N          5.9650    9.0900   10.8500 N.3   273  TRP273     -0.1227
     72  CA         4.9770   10.1570   10.9260 C.3   273  TRP273      0.1737
     73  C          4.5050   10.5920    9.5450 C.2   273  TRP273      0.2595
     74  O          3.4250   11.1860    9.4390 O.2   273  TRP273     -0.2718
     75  CB         5.5410   11.3550   11.6910 C.3   273  TRP273      0.0564
     76  CG         6.6510   12.1050   11.0290 C.ar  273  TRP273      0.0003
     77  CD1        7.7660   11.6150   10.3900 C.ar  273  TRP273      0.0946
     78  CD2        6.7570   13.5190   10.9550 C.ar  273  TRP273      0.0152
     79  NE1        8.5500   12.6580    9.9230 N.ar  273  TRP273     -0.2442
     80  CE2        7.9410   13.8350   10.2750 C.ar  273  TRP273      0.0810
     81  CE3        5.9510   14.5660   11.4160 C.ar  273  TRP273      0.0012
     82  CZ2        8.3200   15.1600   10.0380 C.ar  273  TRP273      0.0191
     83  CZ3        6.3260   15.8580   11.1870 C.ar  273  TRP273      0.0001
     84  CH2        7.5030   16.1550   10.4990 C.ar  273  TRP273      0.0015
     85  N          5.3060   10.3090    8.5100 N.am  274  ARG274     -0.1980
     86  CA         5.0320   10.6530    7.1510 C.3   274  ARG274      0.1597
     87  C          5.0900    9.3950    6.2640 C.2   274  ARG274      0.2287
     88  O          5.6520    9.3710    5.1860 O.2   274  ARG274     -0.2864
     89  CB         5.9540   11.7400    6.6600 C.3   274  ARG274      0.0334
     90  CG         5.6830   13.0690    7.3220 C.3   274  ARG274      0.0492
     91  CD         6.5530   14.1730    6.8350 C.3   274  ARG274      0.2205
     92  NE         6.1150   15.4560    7.3960 N.pl3 274  ARG274     -0.0865
     93  CZ         6.7100   16.6050    7.2130 C.cat 274  ARG274      0.5346
     94  NH1        7.7940   16.6740    6.4820 N.pl3 274  ARG274      0.1354
     95  NH2        6.2280   17.6920    7.7710 N.pl3 274  ARG274      0.1354
@<TRIPOS>BOND
     1    61    62    1
     2    62    63    1
     3    56    55    2
     4    55    54    1
     5    64    63    2
     6    63    65   am
     7    37    35   ar
     8    37    38   ar
     9    65    66    1
    10    54    57    1
    11    54    53    1
    12    40    38   ar
    13    40    42   ar
    14    67    66    1
    15    67    68    2
    16    35    34   ar
    17    38    36   ar
    18    66    69    1
    19    57    58    1
    20    59    58    2
    21    42    41   ar
    22    58    60   am
    23    34    36   ar
    24    34    33    1
    25    36    39   ar
    26    29    30    1
    27    69    70    1
    28    30    33    1
    29    30    31    1
    30    41    39   ar
    31    31    32    2
    32    46    45    2
    33    88    87    2
    34    45    44    1
    35    27    26    2
    36    28    26   am
    37    26    25    1
    38    87    86    1
    39    94    93    1
    40    89    86    1
    41    89    90    1
    42    24    23    2
    43    44    43    1
    44    44    47    1
    45    25    22    1
    46    91    90    1
    47    91    92    1
    48     3     4    2
    49     3     2    1
    50    22    23    1
    51    22    21    1
    52    86    85    1
    53    93    92    2
    54    93    95    1
    55     5     2    1
    56     5     6    1
    57    47    48    1
    58     2     1    1
    59    21    11   am
    60     6     7   ar
    61     6     8   ar
    62    85    73   am
    63    48    49   ar
    64    48    50   ar
    65    16    18   ar
    66    16    14   ar
    67    18    19   ar
    68    49    51   ar
    69    11    12    2
    70    11    10    1
    71    74    73    2
    72    73    72    1
    73    79    80   ar
    74    79    77   ar
    75    82    80   ar
    76    82    84   ar
    77    50    52   ar
    78    13    14    1
    79    13    10    1
    80    14    15   ar
    81    10     9    1
    82    80    78   ar
    83    19    20    1
    84    19    17   ar
    85    77    76   ar
    86    51    52   ar
    87    84    83   ar
    88    71    72    1
    89    72    75    1
    90    78    76   ar
    91    78    81   ar
    92    76    75    1
    93    83    81   ar
    94    15    17   ar
