@<TRIPOS>MOLECULE
tmp/1od8A02.pdb
 136 133 0 0 0
SMALL
GASTEIGER

@<TRIPOS>ATOM
      1  N         10.4460    8.8880   20.3550 N.3    43  GLU43      -0.1245
      2  CA         9.7200    9.6420   19.3450 C.3    43  GLU43       0.1567
      3  C          8.8500   10.7250   19.9520 C.2    43  GLU43       0.2260
      4  O          8.7020   11.8100   19.3740 O.2    43  GLU43      -0.2867
      5  CB         8.9010    8.7180   18.4760 C.3    43  GLU43       0.0388
      6  CG         8.3630    9.3760   17.2360 C.3    43  GLU43       0.1160
      7  CD         7.5430    8.4930   16.3450 C.2    43  GLU43       0.3649
      8  OE1        7.2600    7.3430   16.7390 O.co2  43  GLU43      -0.2457
      9  OE2        7.1890    8.9470   15.2280 O.co2  43  GLU43      -0.2457
     10  N          9.0550   14.3500   25.3570 N.3    47  LYS47      -0.1245
     11  CA         8.5980   15.6900   25.0740 C.3    47  LYS47       0.1561
     12  C          7.9230   16.2810   26.3130 C.2    47  LYS47       0.2260
     13  O          7.7210   15.6230   27.3190 O.2    47  LYS47      -0.2867
     14  CB         7.6830   15.6780   23.8690 C.3    47  LYS47       0.0271
     15  CG         8.4430   15.3150   22.5920 C.3    47  LYS47       0.0035
     16  CD         7.5440   15.1260   21.4030 C.3    47  LYS47       0.0206
     17  CE         8.3800   14.8630   20.1670 C.3    47  LYS47       0.1093
     18  NZ         7.5370   14.5220   18.9750 N.3    47  LYS47      -0.1314
     19  N         15.0100   14.0490   23.6930 N.3    80  HIS80      -0.1241
     20  CA        14.2750   14.8940   22.7670 C.3    80  HIS80       0.1621
     21  C         12.9100   15.1720   23.3850 C.2    80  HIS80       0.2264
     22  O         12.1610   14.2320   23.5650 O.2    80  HIS80      -0.2867
     23  CB        14.1410   14.1770   21.4260 C.3    80  HIS80       0.0745
     24  CG        13.3690   14.9280   20.4100 C.ar   80  HIS80       0.0817
     25  ND1       13.8970   15.9630   19.6990 N.ar   80  HIS80      -0.2268
     26  CD2       12.0920   14.7900   19.9820 C.ar   80  HIS80       0.1154
     27  CE1       12.9490   16.4340   18.8700 C.ar   80  HIS80       0.1986
     28  NE2       11.8410   15.7480   19.0210 N.ar   80  HIS80      -0.2212
     29  N         10.2370   23.6490   23.3660 N.3    84  TRP84      -0.1241
     30  CA         9.7100   23.5440   22.0150 C.3    84  TRP84       0.1605
     31  C          8.3280   24.1610   22.0140 C.2    84  TRP84       0.2264
     32  O          7.5900   24.0380   23.0020 O.2    84  TRP84      -0.2867
     33  CB         9.5640   22.0740   21.6250 C.3    84  TRP84       0.0550
     34  CG         9.2640   21.7600   20.1920 C.ar   84  TRP84       0.0003
     35  CD1        9.4620   22.5410   19.0810 C.ar   84  TRP84       0.0946
     36  CD2        8.7610   20.5090   19.7130 C.ar   84  TRP84       0.0152
     37  NE1        9.0940   21.8470   17.9540 N.ar   84  TRP84      -0.2442
     38  CE2        8.6680   20.5960   18.3130 C.ar   84  TRP84       0.0810
     39  CE3        8.3650   19.3500   20.3160 C.ar   84  TRP84       0.0012
     40  CZ2        8.2120   19.5540   17.5280 C.ar   84  TRP84       0.0191
     41  CZ3        7.9140   18.3100   19.5360 C.ar   84  TRP84       0.0001
     42  CH2        7.8270   18.4110   18.1470 C.ar   84  TRP84       0.0015
     43  N          3.7240   20.3210   21.0650 N.3    87  GLN87      -0.1245
     44  CA         3.5200   19.2720   22.0410 C.3    87  GLN87       0.1566
     45  C          3.7800   19.7570   23.4570 C.2    87  GLN87       0.2260
     46  O          4.2460   19.0390   24.3160 O.2    87  GLN87      -0.2867
     47  CB         4.2380   17.9720   21.6690 C.3    87  GLN87       0.0367
     48  CG         3.5970   17.3370   20.4590 C.3    87  GLN87       0.0905
     49  CD         4.3620   16.1200   19.9650 C.2    87  GLN87       0.2608
     50  OE1        5.2740   16.2840   19.1430 O.2    87  GLN87      -0.2717
     51  NE2        4.0350   14.9390   20.4540 N.am   87  GLN87      -0.0878
     52  N         14.2430   23.0580   20.3650 N.3   126  ASN126     -0.1225
     53  CA        13.8650   22.5400   19.0710 C.3   126  ASN126      0.1785
     54  C         13.0850   23.6190   18.3000 C.2   126  ASN126      0.2597
     55  O         12.1770   24.2580   18.8530 O.2   126  ASN126     -0.2718
     56  CB        12.9550   21.3180   19.2740 C.3   126  ASN126      0.1169
     57  CG        12.8730   20.3690   18.1160 C.2   126  ASN126      0.2627
     58  OD1       13.8390   20.1960   17.3910 O.2   126  ASN126     -0.2716
     59  ND2       11.7110   19.7170   17.9360 N.am  126  ASN126     -0.0877
     60  N         13.4150   23.7940   17.0240 N.am  127  GLU127     -0.1979
     61  CA        12.5510   24.4860   16.0580 C.3   127  GLU127      0.1602
     62  C         12.2630   25.9430   16.3940 C.2   127  GLU127      0.2287
     63  O         11.1390   26.4010   16.2910 O.2   127  GLU127     -0.2864
     64  CB        11.2780   23.7080   15.7820 C.3   127  GLU127      0.0415
     65  CG        11.5630   22.3370   15.2270 C.3   127  GLU127      0.1163
     66  CD        10.3370   21.5340   14.8620 C.2   127  GLU127      0.3649
     67  OE1        9.2080   22.0300   15.1190 O.co2 127  GLU127     -0.2457
     68  OE2       10.4960   20.4170   14.3090 O.co2 127  GLU127     -0.2457
     69  N         14.8580   21.9860   11.6100 N.3   171  TYR171     -0.1241
     70  CA        14.6530   21.4660   10.2690 C.3   171  TYR171      0.1605
     71  C         14.7410   22.6150    9.2850 C.2   171  TYR171      0.2264
     72  O         14.6600   23.8040    9.6450 O.2   171  TYR171     -0.2867
     73  CB        13.3010   20.7630   10.1200 C.3   171  TYR171      0.0534
     74  CG        12.1170   21.6970   10.1880 C.ar  171  TYR171     -0.0201
     75  CD1       11.5560   22.0740   11.3940 C.ar  171  TYR171     -0.0009
     76  CD2       11.5550   22.2140    9.0290 C.ar  171  TYR171     -0.0009
     77  CE1       10.4680   22.9310   11.4380 C.ar  171  TYR171      0.0417
     78  CE2       10.4730   23.0700    9.0710 C.ar  171  TYR171      0.0417
     79  CZ         9.9390   23.4280   10.2830 C.ar  171  TYR171      0.1957
     80  OH         8.8600   24.2780   10.3500 O.3   171  TYR171     -0.2866
     81  N         17.5970   18.0970   11.5310 N.3   204  GLN204     -0.1245
     82  CA        16.5460   17.0950   11.4750 C.3   204  GLN204      0.1566
     83  C         16.5840   16.3090   10.1850 C.2   204  GLN204      0.2260
     84  O         16.3450   15.1050   10.1870 O.2   204  GLN204     -0.2867
     85  CB        15.1600   17.7100   11.6700 C.3   204  GLN204      0.0367
     86  CG        14.8920   18.1280   13.0950 C.3   204  GLN204      0.0905
     87  CD        13.4860   18.6660   13.2790 C.2   204  GLN204      0.2608
     88  OE1       12.5780   18.3090   12.5160 O.2   204  GLN204     -0.2717
     89  NE2       13.2780   19.5110   14.2750 N.am  204  GLN204     -0.0878
     90  N         14.6520   16.3410    7.3920 N.3   206  HIS206     -0.1241
     91  CA        13.4150   15.8990    6.7550 C.3   206  HIS206      0.1621
     92  C         13.4050   16.3480    5.2950 C.2   206  HIS206      0.2264
     93  O         12.8490   17.3890    4.9590 O.2   206  HIS206     -0.2867
     94  CB        12.1900   16.4520    7.4890 C.3   206  HIS206      0.0745
     95  CG        12.0580   15.9380    8.8710 C.ar  206  HIS206      0.0817
     96  ND1       11.8500   14.5990    9.1370 N.ar  206  HIS206     -0.2268
     97  CD2       12.1140   16.5590   10.0680 C.ar  206  HIS206      0.1154
     98  CE1       11.7920   14.4420   10.4470 C.ar  206  HIS206      0.1986
     99  NE2       11.9350   15.6110   11.0300 N.ar  206  HIS206     -0.2212
    100  N         16.8250   13.3820   12.5790 N.3   235  GLU235     -0.1245
    101  CA        15.4640   12.8940   12.2840 C.3   235  GLU235      0.1567
    102  C         15.3310   12.5580   10.8050 C.2   235  GLU235      0.2260
    103  O         14.3050   12.8460   10.2050 O.2   235  GLU235     -0.2867
    104  CB        14.3850   13.8800   12.7180 C.3   235  GLU235      0.0388
    105  CG        14.5200   14.3940   14.1240 C.3   235  GLU235      0.1160
    106  CD        13.3930   15.2750   14.5560 C.2   235  GLU235      0.3649
    107  OE1       12.3720   15.4180   13.8810 O.co2 235  GLU235     -0.2457
    108  OE2       13.5690   15.8760   15.6980 O.co2 235  GLU235     -0.2457
    109  N         14.1840    8.8230   11.4000 N.3   265  TRP265     -0.1241
    110  CA        12.9890    9.0910   12.2130 C.3   265  TRP265      0.1605
    111  C         11.9360    7.9700   12.1060 C.2   265  TRP265      0.2264
    112  O         10.8160    8.1470   11.6730 O.2   265  TRP265     -0.2867
    113  CB        12.4170   10.4940   11.9180 C.3   265  TRP265      0.0550
    114  CG        11.6280   11.0200   13.0620 C.ar  265  TRP265      0.0003
    115  CD1       10.3010   11.3390   13.0720 C.ar  265  TRP265      0.0946
    116  CD2       12.1140   11.3100   14.3910 C.ar  265  TRP265      0.0152
    117  NE1        9.9410   11.7830   14.3110 N.ar  265  TRP265     -0.2442
    118  CE2       11.0230   11.7910   15.1380 C.ar  265  TRP265      0.0810
    119  CE3       13.3560   11.2240   15.0160 C.ar  265  TRP265      0.0012
    120  CZ2       11.1330   12.1460   16.4670 C.ar  265  TRP265      0.0191
    121  CZ3       13.4690   11.5680   16.3080 C.ar  265  TRP265      0.0001
    122  CH2       12.3630   12.0380   17.0360 C.ar  265  TRP265      0.0015
    123  N          5.9650    9.0900   10.8500 N.3   273  TRP273     -0.1241
    124  CA         4.9770   10.1570   10.9260 C.3   273  TRP273      0.1605
    125  C          4.5050   10.5920    9.5450 C.2   273  TRP273      0.2264
    126  O          3.4250   11.1860    9.4390 O.2   273  TRP273     -0.2867
    127  CB         5.5410   11.3550   11.6910 C.3   273  TRP273      0.0550
    128  CG         6.6510   12.1050   11.0290 C.ar  273  TRP273      0.0003
    129  CD1        7.7660   11.6150   10.3900 C.ar  273  TRP273      0.0946
    130  CD2        6.7570   13.5190   10.9550 C.ar  273  TRP273      0.0152
    131  NE1        8.5500   12.6580    9.9230 N.ar  273  TRP273     -0.2442
    132  CE2        7.9410   13.8350   10.2750 C.ar  273  TRP273      0.0810
    133  CE3        5.9510   14.5660   11.4160 C.ar  273  TRP273      0.0012
    134  CZ2        8.3200   15.1600   10.0380 C.ar  273  TRP273      0.0191
    135  CZ3        6.3260   15.8580   11.1870 C.ar  273  TRP273      0.0001
    136  CH2        7.5030   16.1550   10.4990 C.ar  273  TRP273      0.0015
@<TRIPOS>BOND
     1    93    92    2
     2    92    91    1
     3    91    90    1
     4    91    94    1
     5    94    95    1
     6    95    96   ar
     7    95    97   ar
     8    76    78   ar
     9    76    74   ar
    10    78    79   ar
    11    96    98   ar
    12    71    72    2
    13    71    70    1
    14   126   125    2
    15   125   124    1
    16   131   132   ar
    17   131   129   ar
    18   134   132   ar
    19   134   136   ar
    20    97    99   ar
    21    73    74    1
    22    73    70    1
    23    83    84    2
    24    83    82    1
    25    74    75   ar
    26   103   102    2
    27    70    69    1
    28   132   130   ar
    29    79    80    1
    30    79    77   ar
    31   129   128   ar
    32    98    99   ar
    33   136   135   ar
    34   102   101    1
    35   123   124    1
    36   124   127    1
    37   130   128   ar
    38   130   133   ar
    39   128   127    1
    40   135   133   ar
    41    75    77   ar
    42   109   110    1
    43    82    81    1
    44    82    85    1
    45    85    86    1
    46   112   111    2
    47   113   110    1
    48   113   114    1
    49   111   110    1
    50   101   100    1
    51   101   104    1
    52    88    87    2
    53   104   105    1
    54   114   115   ar
    55   114   116   ar
    56   115   117   ar
    57    86    87    1
    58    87    89   am
    59   107   106   ar
    60   105   106    1
    61    68    66   ar
    62   117   118   ar
    63   116   119   ar
    64   116   118   ar
    65   106   108   ar
    66    66    67   ar
    67    66    65    1
    68   119   121   ar
    69   118   120   ar
    70    65    64    1
    71     9     7   ar
    72    64    61    1
    73    61    62    1
    74    61    60    1
    75    63    62    2
    76   121   122   ar
    77     7     8   ar
    78     7     6    1
    79   120   122   ar
    80    60    54   am
    81     6     5    1
    82    58    57    2
    83    40    42   ar
    84    40    38   ar
    85    59    57   am
    86    37    38   ar
    87    37    35   ar
    88    57    56    1
    89    42    41   ar
    90    54    55    2
    91    54    53    1
    92    38    36   ar
    93     5     2    1
    94    27    28   ar
    95    27    25   ar
    96    18    17    1
    97    28    26   ar
    98    53    56    1
    99    53    52    1
   100    35    34   ar
   101    50    49    2
   102     2     3    1
   103     2     1    1
   104     4     3    2
   105    41    39   ar
   106    25    24   ar
   107    36    34   ar
   108    36    39   ar
   109    49    51   am
   110    49    48    1
   111    26    24   ar
   112    17    16    1
   113    34    33    1
   114    24    23    1
   115    48    47    1
   116    43    44    1
   117    16    15    1
   118    23    20    1
   119    33    30    1
   120    47    44    1
   121    31    30    1
   122    31    32    2
   123    30    29    1
   124    44    45    1
   125    15    14    1
   126    20    21    1
   127    20    19    1
   128    21    22    2
   129    45    46    2
   130    14    11    1
   131    11    10    1
   132    11    12    1
   133    12    13    2
