@<TRIPOS>MOLECULE
tmp/1od9A00.pdb
 107 108 0 0 0
SMALL
GASTEIGER

@<TRIPOS>ATOM
      1  N         63.5500   29.5580   26.6130 N.3     2  TRP2       -0.1241
      2  CA        62.9650   30.8660   26.6300 C.3     2  TRP2        0.1605
      3  C         63.7740   31.6070   25.5660 C.2     2  TRP2        0.2264
      4  O         64.9730   31.3410   25.4110 O.2     2  TRP2       -0.2867
      5  CB        63.2290   31.5140   27.9760 C.3     2  TRP2        0.0550
      6  CG        62.3380   31.0340   29.0550 C.ar    2  TRP2        0.0003
      7  CD1       62.4770   29.9040   29.8140 C.ar    2  TRP2        0.0946
      8  CD2       61.1580   31.6750   29.4940 C.ar    2  TRP2        0.0152
      9  NE1       61.4420   29.8080   30.7130 N.ar    2  TRP2       -0.2442
     10  CE2       60.6150   30.8910   30.5350 C.ar    2  TRP2        0.0810
     11  CE3       60.5000   32.8540   29.1090 C.ar    2  TRP2        0.0012
     12  CZ2       59.4490   31.2420   31.1990 C.ar    2  TRP2        0.0191
     13  CZ3       59.3440   33.2050   29.7680 C.ar    2  TRP2        0.0001
     14  CH2       58.8270   32.3980   30.8100 C.ar    2  TRP2        0.0015
     15  N         67.3970   50.4070   26.3640 N.3    44  TYR44      -0.1241
     16  CA        67.2620   49.8200   27.7130 C.3    44  TYR44       0.1605
     17  C         68.3820   50.1490   28.6980 C.2    44  TYR44       0.2264
     18  O         68.1190   50.4520   29.8640 O.2    44  TYR44      -0.2867
     19  CB        67.0640   48.2780   27.6320 C.3    44  TYR44       0.0534
     20  CG        68.3100   47.4060   27.7430 C.ar   44  TYR44      -0.0201
     21  CD1       68.7260   46.8930   28.9890 C.ar   44  TYR44      -0.0009
     22  CD2       69.0790   47.0910   26.6120 C.ar   44  TYR44      -0.0009
     23  CE1       69.8610   46.0880   29.0950 C.ar   44  TYR44       0.0417
     24  CE2       70.2300   46.2920   26.7200 C.ar   44  TYR44       0.0417
     25  CZ        70.6040   45.8080   27.9640 C.ar   44  TYR44       0.1957
     26  OH        71.7460   45.0700   28.1090 O.3    44  TYR44      -0.2866
     27  N         60.2310   42.4890   25.6990 N.3    97  ARG97      -0.1245
     28  CA        60.0450   41.7510   26.9360 C.3    97  ARG97       0.1563
     29  C         58.6160   41.2430   27.0700 C.2    97  ARG97       0.2260
     30  O         57.6700   41.9980   26.8070 O.2    97  ARG97      -0.2867
     31  CB        60.3150   42.6420   28.1370 C.3    97  ARG97       0.0307
     32  CG        59.9950   42.0020   29.5190 C.3    97  ARG97       0.0489
     33  CD        60.3930   43.0060   30.6010 C.3    97  ARG97       0.2205
     34  NE        60.2340   42.5440   31.9670 N.pl3  97  ARG97      -0.0865
     35  CZ        60.9230   41.5600   32.5480 C.cat  97  ARG97       0.5346
     36  NH1       61.8540   40.8850   31.8970 N.pl3  97  ARG97       0.1354
     37  NH2       60.6680   41.2500   33.8180 N.pl3  97  ARG97       0.1354
     38  N         55.1810   36.3430   37.6930 N.3   102  ASP102     -0.1225
     39  CA        56.2500   37.0050   38.4400 C.3   102  ASP102      0.1805
     40  C         57.6310   36.4530   38.1110 C.2   102  ASP102      0.2598
     41  O         58.5880   37.2080   37.9130 O.2   102  ASP102     -0.2718
     42  CB        55.9970   36.8710   39.9460 C.3   102  ASP102      0.1424
     43  CG        56.9510   37.7220   40.7820 C.2   102  ASP102      0.3668
     44  OD1       56.9840   37.5200   42.0150 O.co2 102  ASP102     -0.2456
     45  OD2       57.6560   38.5930   40.2190 O.co2 102  ASP102     -0.2456
     46  N         57.7340   35.1350   38.0690 N.am  103  SER103     -0.1938
     47  CA        58.9930   34.4970   37.7710 C.3   103  SER103      0.2055
     48  C         59.1210   34.1010   36.2850 C.2   103  SER103      0.2643
     49  O         60.2230   33.9690   35.7540 O.2   103  SER103     -0.2714
     50  CB        59.1480   33.2760   38.6680 C.3   103  SER103      0.2130
     51  OG        57.9800   32.4770   38.6040 O.3   103  SER103     -0.2179
     52  N         58.0010   33.9050   35.6030 N.am  104  ASN104     -0.1957
     53  CA        58.0610   33.5290   34.1940 C.3   104  ASN104      0.1819
     54  C         57.9610   34.7870   33.3290 C.2   104  ASN104      0.2621
     55  O         56.8960   35.1290   32.8170 O.2   104  ASN104     -0.2715
     56  CB        56.9360   32.5300   33.8570 C.3   104  ASN104      0.1195
     57  CG        57.1930   31.1400   34.4480 C.2   104  ASN104      0.2630
     58  OD1       58.2890   30.5950   34.3300 O.2   104  ASN104     -0.2716
     59  ND2       56.1870   30.5780   35.0970 N.am  104  ASN104     -0.0877
     60  N         59.0790   35.4960   33.2130 N.am  105  ARG105     -0.1963
     61  CA        59.1580   36.7120   32.4130 C.3   105  ARG105      0.1729
     62  C         60.5300   36.7140   31.7340 C.2   105  ARG105      0.2616
     63  O         61.4360   35.9860   32.1360 O.2   105  ARG105     -0.2715
     64  CB        58.9530   37.9420   33.2840 C.3   105  ARG105      0.0348
     65  CG        60.1170   38.1920   34.1890 C.3   105  ARG105      0.0492
     66  CD        59.7250   38.5380   35.6070 C.3   105  ARG105      0.2205
     67  NE        58.9950   39.7900   35.7140 N.pl3 105  ARG105     -0.0865
     68  CZ        57.6940   39.9070   35.4970 C.cat 105  ARG105      0.5346
     69  NH1       56.9830   38.8410   35.1580 N.pl3 105  ARG105      0.1354
     70  NH2       57.1010   41.0850   35.6420 N.pl3 105  ARG105      0.1354
     71  N         60.7010   37.5470   30.7190 N.am  106  TRP106     -0.1960
     72  CA        61.9320   37.4880   29.9540 C.3   106  TRP106      0.1771
     73  C         62.1950   38.7490   29.1810 C.2   106  TRP106      0.2620
     74  O         61.2690   39.3190   28.6060 O.2   106  TRP106     -0.2715
     75  CB        61.8000   36.3490   28.9410 C.3   106  TRP106      0.0590
     76  CG        63.0390   36.0100   28.2390 C.ar  106  TRP106      0.0006
     77  CD1       63.4960   36.5220   27.0350 C.ar  106  TRP106      0.0946
     78  CD2       64.0310   35.0900   28.6910 C.ar  106  TRP106      0.0152
     79  NE1       64.7150   35.9660   26.7310 N.ar  106  TRP106     -0.2442
     80  CE2       65.0660   35.0830   27.7270 C.ar  106  TRP106      0.0810
     81  CE3       64.1420   34.2560   29.8170 C.ar  106  TRP106      0.0012
     82  CZ2       66.2100   34.2740   27.8590 C.ar  106  TRP106      0.0191
     83  CZ3       65.2740   33.4520   29.9510 C.ar  106  TRP106      0.0001
     84  CH2       66.2950   33.4650   28.9730 C.ar  106  TRP106      0.0015
     85  N         63.4600   39.1620   29.1450 N.am  107  LEU107     -0.1963
     86  CA        63.8680   40.3410   28.3780 C.3   107  LEU107      0.1728
     87  C         64.9470   39.8940   27.3820 C.2   107  LEU107      0.2616
     88  O         65.9050   39.2160   27.7630 O.2   107  LEU107     -0.2715
     89  CB        64.4170   41.4330   29.2950 C.3   107  LEU107      0.0311
     90  CG        65.2020   42.5430   28.5690 C.3   107  LEU107      0.0022
     91  CD1       64.2490   43.3350   27.6530 C.3   107  LEU107      0.0001
     92  CD2       65.8410   43.4920   29.6020 C.3   107  LEU107      0.0001
     93  N         64.7720   40.2440   26.1040 N.am  108  ASP108     -0.1957
     94  CA        65.7370   39.8740   25.0730 C.3   108  ASP108      0.1840
     95  C         67.0590   40.6110   25.3050 C.2   108  ASP108      0.2621
     96  O         67.0640   41.8120   25.4320 O.2   108  ASP108     -0.2715
     97  CB        65.1880   40.2280   23.6740 C.3   108  ASP108      0.1450
     98  CG        66.1450   39.8540   22.5580 C.2   108  ASP108      0.3671
     99  OD1       66.9650   38.9220   22.7890 O.co2 108  ASP108     -0.2456
    100  OD2       66.0670   40.4790   21.4540 O.co2 108  ASP108     -0.2456
    101  N         68.1720   39.8950   25.3540 N.am  109  VAL109     -0.1977
    102  CA        69.4530   40.5470   25.5650 C.3   109  VAL109      0.1596
    103  C         70.0250   41.1040   24.2530 C.2   109  VAL109      0.2287
    104  O         70.7530   42.0840   24.2650 O.2   109  VAL109     -0.2864
    105  CB        70.4700   39.5820   26.2090 C.3   109  VAL109      0.0276
    106  CG1       70.7070   38.3830   25.2930 C.3   109  VAL109      0.0022
    107  CG2       71.7770   40.3360   26.5130 C.3   109  VAL109      0.0022
@<TRIPOS>BOND
     1   100    98   ar
     2    98    99   ar
     3    98    97    1
     4    97    94    1
     5   103   104    2
     6   103   102    1
     7    94    95    1
     8    94    93    1
     9   106   105    1
    10    95   101   am
    11    95    96    2
    12   101   102    1
    13     4     3    2
    14   102   105    1
    15     3     2    1
    16    27    28    1
    17    93    87   am
    18   105   107    1
    19    15    16    1
    20    22    24   ar
    21    22    20   ar
    22     1     2    1
    23     2     5    1
    24    24    25   ar
    25    79    77   ar
    26    79    80   ar
    27    30    29    2
    28    28    29    1
    29    28    31    1
    30    77    76   ar
    31    87    88    2
    32    87    86    1
    33    19    16    1
    34    19    20    1
    35    91    90    1
    36    16    17    1
    37    80    82   ar
    38    80    78   ar
    39    20    21   ar
    40    82    84   ar
    41    25    26    1
    42    25    23   ar
    43     5     6    1
    44    31    32    1
    45    76    78   ar
    46    76    75    1
    47    86    85    1
    48    86    89    1
    49    90    89    1
    50    90    92    1
    51    74    73    2
    52    78    81   ar
    53    17    18    2
    54    75    72    1
    55    84    83   ar
    56    21    23   ar
    57     6     8   ar
    58     6     7   ar
    59    11     8   ar
    60    11    13   ar
    61    85    73   am
    62    73    72    1
    63     8    10   ar
    64    32    33    1
    65    13    14   ar
    66     7     9   ar
    67    81    83   ar
    68    72    71    1
    69    10     9   ar
    70    10    12   ar
    71    33    34    1
    72    71    62   am
    73    14    12   ar
    74    62    63    2
    75    62    61    1
    76    36    35    1
    77    34    35    2
    78    61    60    1
    79    61    64    1
    80    35    37    1
    81    55    54    2
    82    60    54   am
    83    64    65    1
    84    54    53    1
    85    56    53    1
    86    56    57    1
    87    65    66    1
    88    53    52    1
    89    58    57    2
    90    57    59   am
    91    69    68    1
    92    68    70    1
    93    68    67    2
    94    52    48   am
    95    66    67    1
    96    49    48    2
    97    48    47    1
    98    38    39    1
    99    47    46    1
   100    47    50    1
   101    41    40    2
   102    46    40   am
   103    40    39    1
   104    39    42    1
   105    51    50    1
   106    42    43    1
   107    45    43   ar
   108    43    44   ar
