@<TRIPOS>MOLECULE
tmp/1odaA00.pdb
 121 121 0 0 0
SMALL
GASTEIGER

@<TRIPOS>ATOM
      1  N         61.2830   29.6220   25.7440 N.3     2  TRP2       -0.1241
      2  CA        61.0830   31.0750   25.8620 C.3     2  TRP2        0.1605
      3  C         61.9590   31.8130   24.8540 C.2     2  TRP2        0.2264
      4  O         63.1500   31.5270   24.7670 O.2     2  TRP2       -0.2867
      5  CB        61.4760   31.5860   27.2610 C.3     2  TRP2        0.0550
      6  CG        60.4810   31.3330   28.3390 C.ar    2  TRP2        0.0003
      7  CD1       60.3750   30.2190   29.1100 C.ar    2  TRP2        0.0946
      8  CD2       59.4290   32.2090   28.7510 C.ar    2  TRP2        0.0152
      9  NE1       59.3170   30.3400   29.9790 N.ar    2  TRP2       -0.2442
     10  CE2       58.7180   31.5540   29.7780 C.ar    2  TRP2        0.0810
     11  CE3       59.0120   33.4820   28.3460 C.ar    2  TRP2        0.0012
     12  CZ2       57.6170   32.1290   30.4120 C.ar    2  TRP2        0.0191
     13  CZ3       57.9180   34.0560   28.9750 C.ar    2  TRP2        0.0001
     14  CH2       57.2320   33.3760   29.9960 C.ar    2  TRP2        0.0015
     15  N         66.8030   50.4760   24.6660 N.3    42  TYR42      -0.1227
     16  CA        66.5830   50.0230   26.0380 C.3    42  TYR42       0.1736
     17  C         67.6690   50.4050   27.0490 C.2    42  TYR42       0.2596
     18  O         67.3820   50.9510   28.1150 O.2    42  TYR42      -0.2718
     19  CB        66.4010   48.4980   26.0350 C.3    42  TYR42       0.0548
     20  CG        65.9490   47.9260   27.3520 C.ar   42  TYR42      -0.0200
     21  CD1       64.6250   48.0200   27.7560 C.ar   42  TYR42      -0.0009
     22  CD2       66.8550   47.3340   28.2180 C.ar   42  TYR42      -0.0009
     23  CE1       64.2130   47.5410   29.0010 C.ar   42  TYR42       0.0417
     24  CE2       66.4530   46.8530   29.4690 C.ar   42  TYR42       0.0417
     25  CZ        65.1330   46.9600   29.8560 C.ar   42  TYR42       0.1957
     26  OH        64.7500   46.5040   31.1010 O.3    42  TYR42      -0.2866
     27  N         68.9140   50.1000   26.7140 N.am   43  SER43      -0.1952
     28  CA        70.0470   50.3850   27.5850 C.3    43  SER43       0.1924
     29  C         70.0850   51.8280   28.0770 C.2    43  SER43       0.2314
     30  O         70.2590   52.0810   29.2780 O.2    43  SER43      -0.2863
     31  CB        71.3380   50.0900   26.8410 C.3    43  SER43       0.2116
     32  OG        71.4020   50.8970   25.6800 O.3    43  SER43      -0.2180
     33  N         63.8550   46.3700   21.3460 N.3    93  ASN93      -0.1240
     34  CA        63.7690   45.0970   22.0290 C.3    93  ASN93       0.1653
     35  C         62.3070   44.8850   22.4250 C.2    93  ASN93       0.2266
     36  O         61.6250   45.8200   22.8510 O.2    93  ASN93      -0.2867
     37  CB        64.7020   45.0970   23.2380 C.3    93  ASN93       0.1155
     38  CG        66.1080   45.5430   22.8770 C.2    93  ASN93       0.2627
     39  OD1       66.3380   46.7220   22.5900 O.2    93  ASN93      -0.2716
     40  ND2       67.0530   44.6040   22.8760 N.am   93  ASN93      -0.0877
     41  N         59.2900   42.9110   24.6240 N.3    95  ARG95      -0.1245
     42  CA        59.0390   42.2760   25.9020 C.3    95  ARG95       0.1563
     43  C         57.5810   41.9330   26.0570 C.2    95  ARG95       0.2260
     44  O         56.7200   42.7990   25.9140 O.2    95  ARG95      -0.2867
     45  CB        59.4090   43.1990   27.0520 C.3    95  ARG95       0.0307
     46  CG        58.8890   42.7030   28.3950 C.3    95  ARG95       0.0489
     47  CD        59.3100   43.6230   29.5170 C.3    95  ARG95       0.2205
     48  NE        59.6070   42.8940   30.7470 N.pl3  95  ARG95      -0.0865
     49  CZ        60.4220   41.8460   30.8130 C.cat  95  ARG95       0.5346
     50  NH1       61.0180   41.3970   29.7240 N.pl3  95  ARG95       0.1354
     51  NH2       60.6540   41.2460   31.9680 N.pl3  95  ARG95       0.1354
     52  N         54.2360   37.4540   36.5350 N.3   100  ASP100     -0.1225
     53  CA        55.3320   37.8410   37.4540 C.3   100  ASP100      0.1805
     54  C         56.7680   37.3220   37.2530 C.2   100  ASP100      0.2598
     55  O         57.7450   37.9140   37.7400 O.2   100  ASP100     -0.2718
     56  CB        54.8900   37.5120   38.8960 C.3   100  ASP100      0.1424
     57  CG        53.3810   37.7280   39.1270 C.2   100  ASP100      0.3668
     58  OD1       52.8500   38.8330   38.8630 O.co2 100  ASP100     -0.2456
     59  OD2       52.7270   36.7690   39.5900 O.co2 100  ASP100     -0.2456
     60  N         56.8910   36.2130   36.5480 N.am  101  SER101     -0.1938
     61  CA        58.1650   35.5720   36.3080 C.3   101  SER101      0.2055
     62  C         58.0780   35.0360   34.9100 C.2   101  SER101      0.2643
     63  O         59.0750   34.7030   34.2740 O.2   101  SER101     -0.2714
     64  CB        58.3140   34.4240   37.2850 C.3   101  SER101      0.2130
     65  OG        57.0220   33.9350   37.6060 O.3   101  SER101     -0.2179
     66  N         56.8500   34.9440   34.4400 N.am  102  ASN102     -0.1957
     67  CA        56.6140   34.4480   33.1170 C.3   102  ASN102      0.1819
     68  C         56.6100   35.6540   32.2340 C.2   102  ASN102      0.2621
     69  O         55.7010   35.8650   31.4410 O.2   102  ASN102     -0.2715
     70  CB        55.2890   33.7160   33.0420 C.3   102  ASN102      0.1195
     71  CG        55.3750   32.3160   33.6050 C.2   102  ASN102      0.2630
     72  OD1       56.4310   31.6660   33.5610 O.2   102  ASN102     -0.2716
     73  ND2       54.2510   31.8270   34.1180 N.am  102  ASN102     -0.0877
     74  N         57.6330   36.4680   32.4320 N.am  103  ARG103     -0.1963
     75  CA        57.8200   37.6550   31.6550 C.3   103  ARG103      0.1729
     76  C         59.1520   37.4310   30.9570 C.2   103  ARG103      0.2616
     77  O         60.0300   36.7490   31.4790 O.2   103  ARG103     -0.2715
     78  CB        57.8180   38.8920   32.5610 C.3   103  ARG103      0.0348
     79  CG        58.6640   38.8090   33.8060 C.3   103  ARG103      0.0492
     80  CD        58.5520   40.1150   34.5960 C.3   103  ARG103      0.2205
     81  NE        58.8620   41.2810   33.7640 N.pl3 103  ARG103     -0.0865
     82  CZ        58.8870   42.5440   34.1910 C.cat 103  ARG103      0.5346
     83  NH1       59.1820   43.5240   33.3440 N.pl3 103  ARG103      0.1354
     84  NH2       58.6190   42.8360   35.4580 N.pl3 103  ARG103      0.1354
     85  N         59.2860   37.9830   29.7600 N.am  104  TRP104     -0.1960
     86  CA        60.4950   37.7970   28.9810 C.3   104  TRP104      0.1771
     87  C         60.8670   38.9870   28.0990 C.2   104  TRP104      0.2620
     88  O         60.0150   39.5590   27.4220 O.2   104  TRP104     -0.2715
     89  CB        60.3190   36.5580   28.1150 C.3   104  TRP104      0.0590
     90  CG        61.5220   36.2070   27.3430 C.ar  104  TRP104      0.0006
     91  CD1       61.8770   36.6700   26.1090 C.ar  104  TRP104      0.0946
     92  CD2       62.5770   35.3510   27.7740 C.ar  104  TRP104      0.0152
     93  NE1       63.0950   36.1540   25.7470 N.ar  104  TRP104     -0.2442
     94  CE2       63.5480   35.3420   26.7560 C.ar  104  TRP104      0.0810
     95  CE3       62.7990   34.5920   28.9300 C.ar  104  TRP104      0.0012
     96  CZ2       64.7270   34.5970   26.8570 C.ar  104  TRP104      0.0191
     97  CZ3       63.9640   33.8550   29.0300 C.ar  104  TRP104      0.0001
     98  CH2       64.9160   33.8640   28.0010 C.ar  104  TRP104      0.0015
     99  N         62.1490   39.3430   28.0950 N.am  105  LEU105     -0.1963
    100  CA        62.6260   40.4510   27.2800 C.3   105  LEU105      0.1728
    101  C         63.6930   39.9910   26.3210 C.2   105  LEU105      0.2616
    102  O         64.7130   39.4510   26.7450 O.2   105  LEU105     -0.2715
    103  CB        63.2220   41.5470   28.1410 C.3   105  LEU105      0.0311
    104  CG        63.7550   42.6800   27.2760 C.3   105  LEU105      0.0022
    105  CD1       62.6260   43.2600   26.4430 C.3   105  LEU105      0.0001
    106  CD2       64.3650   43.7370   28.1500 C.3   105  LEU105      0.0001
    107  N         63.4700   40.2290   25.0330 N.am  106  ASP106     -0.1957
    108  CA        64.4240   39.8210   24.0130 C.3   106  ASP106      0.1840
    109  C         65.7640   40.5340   24.1570 C.2   106  ASP106      0.2621
    110  O         65.8440   41.7580   24.0650 O.2   106  ASP106     -0.2715
    111  CB        63.8560   40.0850   22.6240 C.3   106  ASP106      0.1450
    112  CG        64.7380   39.5320   21.5300 C.2   106  ASP106      0.3671
    113  OD1       65.1030   38.3440   21.6250 O.co2 106  ASP106     -0.2456
    114  OD2       65.0630   40.2740   20.5770 O.co2 106  ASP106     -0.2456
    115  N         66.8190   39.7610   24.3830 N.am  107  VAL107     -0.1977
    116  CA        68.1520   40.3270   24.5270 C.3   107  VAL107      0.1596
    117  C         68.6920   40.8240   23.1790 C.2   107  VAL107      0.2287
    118  O         69.3580   41.8610   23.1170 O.2   107  VAL107     -0.2864
    119  CB        69.1340   39.2860   25.1270 C.3   107  VAL107      0.0276
    120  CG1       69.3450   38.1470   24.1590 C.3   107  VAL107      0.0022
    121  CG2       70.4600   39.9470   25.4620 C.3   107  VAL107      0.0022
@<TRIPOS>BOND
     1   114   112   ar
     2    33    34    1
     3   112   113   ar
     4   112   111    1
     5    34    35    1
     6    34    37    1
     7    35    36    2
     8    39    38    2
     9   111   108    1
    10    40    38   am
    11    38    37    1
    12   118   117    2
    13   117   116    1
    14   108   109    1
    15   108   107    1
    16   110   109    2
    17   109   115   am
    18   120   119    1
    19   115   116    1
    20   116   119    1
    21    41    42    1
    22    15    16    1
    23     4     3    2
    24     3     2    1
    25   107   101   am
    26   119   121    1
    27    32    31    1
    28     1     2    1
    29    93    91   ar
    30    93    94   ar
    31     2     5    1
    32    42    43    1
    33    42    45    1
    34    44    43    2
    35    19    16    1
    36    19    20    1
    37    16    17    1
    38    91    90   ar
    39   101   102    2
    40   101   100    1
    41   105   104    1
    42    27    17   am
    43    27    28    1
    44    94    96   ar
    45    94    92   ar
    46    31    28    1
    47    96    98   ar
    48    17    18    2
    49    45    46    1
    50     5     6    1
    51   104   103    1
    52   104   106    1
    53   100    99    1
    54   100   103    1
    55    90    92   ar
    56    90    89    1
    57    20    21   ar
    58    20    22   ar
    59    88    87    2
    60    28    29    1
    61    21    23   ar
    62    92    95   ar
    63    98    97   ar
    64    29    30    2
    65    99    87   am
    66    87    86    1
    67    89    86    1
    68    22    24   ar
    69     6     8   ar
    70     6     7   ar
    71    11     8   ar
    72    11    13   ar
    73    46    47    1
    74     8    10   ar
    75    95    97   ar
    76    13    14   ar
    77    86    85    1
    78    23    25   ar
    79     7     9   ar
    80    24    25   ar
    81    47    48    1
    82    50    49    1
    83    85    76   am
    84    10     9   ar
    85    10    12   ar
    86    25    26    1
    87    14    12   ar
    88    48    49    2
    89    49    51    1
    90    76    77    2
    91    76    75    1
    92    69    68    2
    93    75    74    1
    94    75    78    1
    95    68    74   am
    96    68    67    1
    97    78    79    1
    98    70    67    1
    99    70    71    1
   100    67    66    1
   101    83    82    1
   102    72    71    2
   103    71    73   am
   104    81    82    2
   105    81    80    1
   106    79    80    1
   107    82    84    1
   108    63    62    2
   109    66    62   am
   110    62    61    1
   111    61    60    1
   112    61    64    1
   113    52    53    1
   114    60    54   am
   115    54    53    1
   116    54    55    2
   117    64    65    1
   118    53    56    1
   119    58    57   ar
   120    56    57    1
   121    57    59   ar
