@<TRIPOS>MOLECULE
tmp/1odiF00.pdb
 130 122 0 0 0
SMALL
GASTEIGER

@<TRIPOS>ATOM
      1  N         33.7470  -78.2080 -119.4060 N.3    20  GLY20      -0.1225
      2  CA        33.8940  -79.6400 -119.2270 C.3    20  GLY20       0.1811
      3  C         34.9950  -79.9800 -118.2430 C.2    20  GLY20       0.2280
      4  O         34.9370  -81.0070 -117.5720 O.2    20  GLY20      -0.2866
      5  N         33.6990  -85.0920 -119.0460 N.3    64  MET64      -0.1245
      6  CA        33.7330  -85.3160 -120.4850 C.3    64  MET64       0.1570
      7  C         32.7520  -86.3920 -120.9270 C.2    64  MET64       0.2261
      8  O         32.5680  -87.3950 -120.2400 O.2    64  MET64      -0.2867
      9  CB        35.1350  -85.7280 -120.9190 C.3    64  MET64       0.0387
     10  CG        36.2060  -84.7270 -120.6010 C.3    64  MET64       0.0595
     11  SD        37.8000  -85.3150 -121.1860 S.3    64  MET64      -0.1393
     12  CE        38.2170  -86.5130 -119.9110 C.3    64  MET64       0.0692
     13  N         27.2610  -73.7910 -122.3070 N.3    86  ARG86      -0.1245
     14  CA        28.4850  -74.5670 -122.3060 C.3    86  ARG86       0.1563
     15  C         29.6180  -73.7360 -122.8780 C.2    86  ARG86       0.2260
     16  O         29.4620  -73.0760 -123.9130 O.2    86  ARG86      -0.2867
     17  CB        28.3310  -75.8340 -123.1450 C.3    86  ARG86       0.0307
     18  CG        29.6530  -76.5410 -123.3970 C.3    86  ARG86       0.0489
     19  CD        29.4600  -77.9070 -124.0110 C.3    86  ARG86       0.2205
     20  NE        30.6050  -78.2940 -124.8320 N.pl3  86  ARG86      -0.0865
     21  CZ        31.8410  -78.4680 -124.3760 C.cat  86  ARG86       0.5346
     22  NH1       32.1150  -78.2950 -123.0900 N.pl3  86  ARG86       0.1354
     23  NH2       32.8080  -78.8150 -125.2090 N.pl3  86  ARG86       0.1354
     24  N         35.9480  -76.6420 -125.3620 N.3    89  THR89      -0.1203
     25  CA        36.9200  -76.6550 -126.4410 C.3    89  THR89       0.1994
     26  C         36.4530  -77.6650 -127.4940 C.2    89  THR89       0.2618
     27  O         35.5800  -78.4910 -127.2220 O.2    89  THR89      -0.2717
     28  CB        38.3220  -77.0410 -125.9240 C.3    89  THR89       0.1784
     29  OG1       38.2710  -78.3340 -125.3130 O.3    89  THR89      -0.2211
     30  CG2       38.8100  -76.0200 -124.9080 C.3    89  THR89       0.0376
     31  N         37.0150  -77.5960 -128.6950 N.am   90  ALA90      -0.1965
     32  CA        36.6080  -78.5110 -129.7540 C.3    90  ALA90       0.1728
     33  C         37.7520  -78.8280 -130.6970 C.2    90  ALA90       0.2616
     34  O         38.7890  -78.1700 -130.6740 O.2    90  ALA90      -0.2715
     35  CB        35.4410  -77.9130 -130.5410 C.3    90  ALA90       0.0334
     36  N         37.5530  -79.8520 -131.5180 N.am   91  GLY91      -0.1955
     37  CA        38.5600  -80.2390 -132.4860 C.3    91  GLY91       0.1869
     38  C         38.0830  -79.9020 -133.8870 C.2    91  GLY91       0.2309
     39  O         37.0770  -80.4430 -134.3470 O.2    91  GLY91      -0.2863
     40  N         30.3150  -86.2640 -130.1080 N.3   155  GLU155     -0.1245
     41  CA        30.6630  -87.6780 -130.2420 C.3   155  GLU155      0.1567
     42  C         31.0430  -88.3360 -128.9220 C.2   155  GLU155      0.2260
     43  O         31.2340  -87.6620 -127.9060 O.2   155  GLU155     -0.2867
     44  CB        31.8310  -87.8250 -131.2170 C.3   155  GLU155      0.0388
     45  CG        33.0990  -87.1620 -130.6920 C.3   155  GLU155      0.1160
     46  CD        34.2810  -87.2860 -131.6220 C.2   155  GLU155      0.3649
     47  OE1       35.3700  -86.8310 -131.2350 O.co2 155  GLU155     -0.2457
     48  OE2       34.1280  -87.8320 -132.7320 O.co2 155  GLU155     -0.2457
     49  N         36.5840  -90.3740 -128.5080 N.3   158  PHE158     -0.1241
     50  CA        37.5670  -89.3500 -128.8520 C.3   158  PHE158      0.1605
     51  C         38.6720  -89.8610 -129.7860 C.2   158  PHE158      0.2264
     52  O         39.0590  -89.1790 -130.7400 O.2   158  PHE158     -0.2867
     53  CB        38.2050  -88.8150 -127.5660 C.3   158  PHE158      0.0534
     54  CG        39.2550  -87.7580 -127.7930 C.ar  158  PHE158     -0.0203
     55  CD1       38.9580  -86.4110 -127.6020 C.ar  158  PHE158     -0.0042
     56  CD2       40.5470  -88.1090 -128.1810 C.ar  158  PHE158     -0.0042
     57  CE1       39.9270  -85.4340 -127.8000 C.ar  158  PHE158     -0.0003
     58  CE2       41.5130  -87.1450 -128.3790 C.ar  158  PHE158     -0.0003
     59  CZ        41.2080  -85.8030 -128.1860 C.ar  158  PHE158     -0.0000
     60  N         34.3290  -81.0520 -133.7450 N.3   177  PHE177     -0.1227
     61  CA        33.8100  -82.1180 -132.8990 C.3   177  PHE177      0.1736
     62  C         34.0500  -81.8050 -131.4300 C.2   177  PHE177      0.2595
     63  O         35.1140  -81.3100 -131.0580 O.2   177  PHE177     -0.2718
     64  CB        34.4940  -83.4550 -133.2090 C.3   177  PHE177      0.0547
     65  CG        34.1830  -84.0060 -134.5660 C.ar  177  PHE177     -0.0202
     66  CD1       34.7710  -83.4700 -135.7030 C.ar  177  PHE177     -0.0042
     67  CD2       33.2980  -85.0680 -134.7090 C.ar  177  PHE177     -0.0042
     68  CE1       34.4820  -83.9820 -136.9690 C.ar  177  PHE177     -0.0003
     69  CE2       32.9990  -85.5880 -135.9720 C.ar  177  PHE177     -0.0003
     70  CZ        33.5950  -85.0410 -137.1050 C.ar  177  PHE177     -0.0000
     71  N         33.0540  -82.0830 -130.5980 N.am  178  GLU178     -0.1965
     72  CA        33.1840  -81.8960 -129.1620 C.3   178  GLU178      0.1733
     73  C         32.4000  -83.0330 -128.5000 C.2   178  GLU178      0.2616
     74  O         31.9160  -83.9250 -129.1990 O.2   178  GLU178     -0.2715
     75  CB        32.7130  -80.4950 -128.7310 C.3   178  GLU178      0.0429
     76  CG        31.3020  -80.0990 -129.1140 C.3   178  GLU178      0.1163
     77  CD        30.3130  -80.3880 -128.0130 C.2   178  GLU178      0.3649
     78  OE1       29.5430  -81.3610 -128.1360 O.co2 178  GLU178     -0.2457
     79  OE2       30.3150  -79.6380 -127.0180 O.co2 178  GLU178     -0.2457
     80  N         32.2700  -83.0300 -127.1770 N.am  179  MET179     -0.1963
     81  CA        31.5860  -84.1420 -126.5220 C.3   179  MET179      0.1736
     82  C         30.4870  -83.8610 -125.4960 C.2   179  MET179      0.2616
     83  O         30.3090  -84.6540 -124.5740 O.2   179  MET179     -0.2715
     84  CB        32.6280  -85.0620 -125.8740 C.3   179  MET179      0.0427
     85  CG        33.5260  -85.7990 -126.8530 C.3   179  MET179      0.0599
     86  SD        35.0430  -86.4340 -126.0760 S.3   179  MET179     -0.1393
     87  CE        34.4040  -87.8770 -125.2120 C.3   179  MET179      0.0692
     88  N         29.7420  -82.7690 -125.6330 N.am  180  GLU180     -0.1977
     89  CA        28.6730  -82.5090 -124.6640 C.3   180  GLU180      0.1602
     90  C         27.4480  -81.7790 -125.2240 C.2   180  GLU180      0.2287
     91  O         26.3290  -81.9930 -124.7570 O.2   180  GLU180     -0.2864
     92  CB        29.2040  -81.7140 -123.4590 C.3   180  GLU180      0.0415
     93  CG        30.2200  -82.4530 -122.5800 C.3   180  GLU180      0.1163
     94  CD        31.6550  -82.3570 -123.1030 C.2   180  GLU180      0.3649
     95  OE1       32.5200  -83.1060 -122.6060 O.co2 180  GLU180     -0.2457
     96  OE2       31.9210  -81.5310 -124.0040 O.co2 180  GLU180     -0.2457
     97  N         40.6670  -76.0670 -129.9110 N.3   202  SER202     -0.1202
     98  CA        41.9470  -76.2480 -129.2500 C.3   202  SER202      0.2020
     99  C         42.8740  -77.1650 -130.0410 C.2   202  SER202      0.2618
    100  O         44.0170  -77.4000 -129.6330 O.2   202  SER202     -0.2717
    101  CB        41.7430  -76.8130 -127.8350 C.3   202  SER202      0.2103
    102  OG        41.2930  -78.1570 -127.8690 O.3   202  SER202     -0.2182
    103  N         42.3890  -77.6750 -131.1720 N.am  203  ASN203     -0.1974
    104  CA        43.1960  -78.5760 -131.9870 C.3   203  ASN203      0.1688
    105  C         42.4870  -79.0050 -133.2580 C.2   203  ASN203      0.2292
    106  O         41.3210  -78.6780 -133.4780 O.2   203  ASN203     -0.2864
    107  CB        43.5460  -79.8250 -131.1800 C.3   203  ASN203      0.1181
    108  CG        42.3190  -80.6600 -130.8360 C.2   203  ASN203      0.2629
    109  OD1       41.9390  -81.5660 -131.5790 O.2   203  ASN203     -0.2716
    110  ND2       41.6850  -80.3450 -129.7100 N.am  203  ASN203     -0.0877
    111  N         41.4610  -82.3590 -135.6260 N.3   205  ILE205     -0.1231
    112  CA        41.2340  -83.7870 -135.4380 C.3   205  ILE205      0.1692
    113  C         42.4730  -84.5440 -135.8770 C.2   205  ILE205      0.2592
    114  O         42.9730  -84.3480 -136.9880 O.2   205  ILE205     -0.2718
    115  CB        40.0320  -84.3020 -136.2590 C.3   205  ILE205      0.0266
    116  CG1       38.7280  -83.7600 -135.6740 C.3   205  ILE205      0.0019
    117  CG2       40.0160  -85.8260 -136.2550 C.3   205  ILE205      0.0020
    118  CD1       38.4530  -84.2360 -134.2630 C.3   205  ILE205      0.0001
    119  N         42.9690  -85.4030 -134.9940 N.am  206  GLY206     -0.1957
    120  CA        44.1490  -86.1780 -135.3120 C.3   206  GLY206      0.1869
    121  C         45.4110  -85.6280 -134.6800 C.2   206  GLY206      0.2309
    122  O         46.4100  -86.3420 -134.5800 O.2   206  GLY206     -0.2863
    123  N         47.4880  -80.5210 -128.1140 N.3   210  LEU210     -0.1245
    124  CA        46.6310  -79.3370 -128.1830 C.3   210  LEU210      0.1561
    125  C         47.5150  -78.1400 -128.5420 C.2   210  LEU210      0.2260
    126  O         48.7120  -78.1400 -128.2530 O.2   210  LEU210     -0.2867
    127  CB        45.9410  -79.0970 -126.8290 C.3   210  LEU210      0.0270
    128  CG        45.0990  -80.2390 -126.2380 C.3   210  LEU210      0.0019
    129  CD1       44.5010  -79.8170 -124.9050 C.3   210  LEU210      0.0001
    130  CD2       44.0030  -80.6250 -127.2130 C.3   210  LEU210      0.0001
@<TRIPOS>BOND
     1    70    68   ar
     2    70    69   ar
     3   114   113    2
     4    68    66   ar
     5   115   117    1
     6   115   116    1
     7   115   112    1
     8    69    67   ar
     9   113   112    1
    10   113   119   am
    11    66    65   ar
    12   116   118    1
    13   111   112    1
    14   120   119    1
    15   120   121    1
    16    67    65   ar
    17   121   122    2
    18    65    64    1
    19    39    38    2
    20    38    37    1
    21    60    61    1
    22   106   105    2
    23   105   104    1
    24    64    61    1
    25    61    62    1
    26    48    46   ar
    27    37    36    1
    28   104   107    1
    29   104   103    1
    30    46    47   ar
    31    46    45    1
    32   109   108    2
    33    36    33   am
    34    62    63    2
    35    62    71   am
    36    44    45    1
    37    44    41    1
    38   107   108    1
    39   103    99   am
    40   108   110   am
    41    52    51    2
    42    33    34    2
    43    33    32    1
    44    71    72    1
    45    35    32    1
    46    41    40    1
    47    41    42    1
    48    99   100    2
    49    99    98    1
    50    97    98    1
    51    51    50    1
    52    32    31    1
    53    98   101    1
    54    74    73    2
    55    72    75    1
    56    72    73    1
    57    76    75    1
    58    76    77    1
    59    42    43    2
    60    50    49    1
    61    50    53    1
    62    31    26   am
    63   125   126    2
    64   125   124    1
    65    73    80   am
    66    58    59   ar
    67    58    56   ar
    68    59    57   ar
    69   124   123    1
    70   124   127    1
    71    56    54   ar
    72    78    77   ar
    73    77    79   ar
    74   102   101    1
    75    57    55   ar
    76    54    55   ar
    77    54    53    1
    78    26    27    2
    79    26    25    1
    80   130   128    1
    81    80    81    1
    82    85    86    1
    83    85    84    1
    84   127   128    1
    85    81    84    1
    86    81    82    1
    87    25    28    1
    88    25    24    1
    89   128   129    1
    90    86    87    1
    91    28    29    1
    92    28    30    1
    93    88    82   am
    94    88    89    1
    95    82    83    2
    96    90    91    2
    97    90    89    1
    98    23    21    1
    99    20    21    2
   100    20    19    1
   101    89    92    1
   102    21    22    1
   103    19    18    1
   104    96    94   ar
   105    16    15    2
   106    92    93    1
   107    18    17    1
   108    17    14    1
   109    94    95   ar
   110    94    93    1
   111    15    14    1
   112    13    14    1
   113    11    10    1
   114    11    12    1
   115     7     6    1
   116     7     8    2
   117     9    10    1
   118     9     6    1
   119     6     5    1
   120     1     2    1
   121     2     3    1
   122     3     4    2
