@<TRIPOS>MOLECULE
tmp/1odjD00.pdb
 118 111 0 0 0
SMALL
GASTEIGER

@<TRIPOS>ATOM
      1  N         25.7050 -129.9120 -134.4860 N.3    20  GLY20      -0.1225
      2  CA        24.9120 -129.3820 -135.5840 C.3    20  GLY20       0.1811
      3  C         24.3330 -130.4160 -136.5410 C.2    20  GLY20       0.2280
      4  O         23.1450 -130.3630 -136.8990 O.2    20  GLY20      -0.2866
      5  N         21.2470 -126.7000 -138.8860 N.3    64  MET64      -0.1245
      6  CA        22.1670 -125.6140 -139.1580 C.3    64  MET64       0.1570
      7  C         21.4890 -124.2780 -139.0160 C.2    64  MET64       0.2261
      8  O         20.3040 -124.1330 -139.3080 O.2    64  MET64      -0.2867
      9  CB        22.7680 -125.7570 -140.5560 C.3    64  MET64       0.0387
     10  CG        23.7580 -126.9000 -140.6630 C.3    64  MET64       0.0595
     11  SD        24.5200 -126.9570 -142.2800 S.3    64  MET64      -0.1393
     12  CE        23.2250 -127.7680 -143.2280 C.3    64  MET64       0.0692
     13  N         26.7670 -126.7760 -126.5740 N.3    86  ARG86      -0.1245
     14  CA        26.9240 -127.0390 -127.9940 C.3    86  ARG86       0.1563
     15  C         28.3510 -127.5070 -128.2550 C.2    86  ARG86       0.2260
     16  O         29.3210 -126.9240 -127.7630 O.2    86  ARG86      -0.2867
     17  CB        26.6230 -125.7900 -128.8220 C.3    86  ARG86       0.0307
     18  CG        27.1040 -125.8880 -130.2650 C.3    86  ARG86       0.0489
     19  CD        26.7240 -124.6740 -131.0590 C.3    86  ARG86       0.2205
     20  NE        27.6450 -124.4490 -132.1710 N.pl3  86  ARG86      -0.0865
     21  CZ        27.6950 -125.1680 -133.2910 C.cat  86  ARG86       0.5346
     22  NH1       26.8660 -126.1910 -133.4860 N.pl3  86  ARG86       0.1354
     23  NH2       28.5880 -124.8600 -134.2240 N.pl3  86  ARG86       0.1354
     24  N         31.5750 -127.1390 -134.8210 N.3    89  THR89      -0.1203
     25  CA        32.6970 -126.8160 -135.6820 C.3    89  THR89       0.1994
     26  C         32.5210 -125.3930 -136.1730 C.2    89  THR89       0.2618
     27  O         31.3990 -124.8930 -136.2600 O.2    89  THR89      -0.2717
     28  CB        32.7240 -127.7430 -136.8990 C.3    89  THR89       0.1784
     29  OG1       31.3760 -127.9710 -137.3400 O.3    89  THR89      -0.2211
     30  CG2       33.3870 -129.0690 -136.5460 C.3    89  THR89       0.0376
     31  N         33.6250 -124.7400 -136.5030 N.am   90  ALA90      -0.1965
     32  CA        33.5520 -123.3740 -136.9870 C.3    90  ALA90       0.1728
     33  C         34.6820 -123.0820 -137.9580 C.2    90  ALA90       0.2616
     34  O         35.6570 -123.8310 -138.0290 O.2    90  ALA90      -0.2715
     35  CB        33.5980 -122.4040 -135.8150 C.3    90  ALA90       0.0334
     36  N         34.5330 -121.9930 -138.7060 N.am   91  GLY91      -0.1955
     37  CA        35.5500 -121.5980 -139.6590 C.3    91  GLY91       0.1869
     38  C         36.3800 -120.4840 -139.0650 C.2    91  GLY91       0.2309
     39  O         35.8460 -119.4330 -138.7330 O.2    91  GLY91      -0.2863
     40  N         26.5640 -116.2820 -137.7260 N.3   155  GLU155     -0.1245
     41  CA        25.9670 -115.7060 -138.9210 C.3   155  GLU155      0.1567
     42  C         24.9010 -116.5680 -139.5760 C.2   155  GLU155      0.2260
     43  O         24.7070 -117.7270 -139.2170 O.2   155  GLU155     -0.2867
     44  CB        27.0630 -115.3840 -139.9420 C.3   155  GLU155      0.0388
     45  CG        27.9760 -116.5540 -140.2840 C.3   155  GLU155      0.1160
     46  CD        29.0250 -116.1760 -141.3170 C.2   155  GLU155      0.3649
     47  OE1       29.9460 -116.9860 -141.5690 O.co2 155  GLU155     -0.2457
     48  OE2       28.9200 -115.0640 -141.8810 O.co2 155  GLU155     -0.2457
     49  N         26.1600 -118.3740 -144.7630 N.3   158  PHE158     -0.1241
     50  CA        27.4040 -119.1330 -144.7750 C.3   158  PHE158      0.1605
     51  C         28.3450 -118.7860 -145.9230 C.2   158  PHE158      0.2264
     52  O         29.5690 -118.7910 -145.7550 O.2   158  PHE158     -0.2867
     53  CB        27.0910 -120.6240 -144.8350 C.3   158  PHE158      0.0534
     54  CG        28.3110 -121.5040 -144.8900 C.ar  158  PHE158     -0.0203
     55  CD1       28.8770 -122.0070 -143.7210 C.ar  158  PHE158     -0.0042
     56  CD2       28.8860 -121.8390 -146.1140 C.ar  158  PHE158     -0.0042
     57  CE1       29.9960 -122.8350 -143.7630 C.ar  158  PHE158     -0.0003
     58  CE2       30.0110 -122.6700 -146.1690 C.ar  158  PHE158     -0.0003
     59  CZ        30.5670 -123.1700 -144.9890 C.ar  158  PHE158     -0.0000
     60  N         33.9220 -118.3380 -137.1790 N.3   177  PHE177     -0.1227
     61  CA        32.5220 -118.0840 -137.4860 C.3   177  PHE177      0.1736
     62  C         31.7220 -119.3720 -137.4210 C.2   177  PHE177      0.2595
     63  O         32.0380 -120.3370 -138.1120 O.2   177  PHE177     -0.2718
     64  CB        32.3700 -117.4980 -138.8890 C.3   177  PHE177      0.0547
     65  CG        32.8610 -116.0980 -139.0100 C.ar  177  PHE177     -0.0202
     66  CD1       34.2180 -115.8140 -138.9660 C.ar  177  PHE177     -0.0042
     67  CD2       31.9640 -115.0470 -139.1480 C.ar  177  PHE177     -0.0042
     68  CE1       34.6840 -114.5040 -139.0610 C.ar  177  PHE177     -0.0003
     69  CE2       32.4200 -113.7460 -139.2390 C.ar  177  PHE177     -0.0003
     70  CZ        33.7890 -113.4720 -139.1970 C.ar  177  PHE177     -0.0000
     71  N         30.6830 -119.3900 -136.5950 N.am  178  GLU178     -0.1965
     72  CA        29.8400 -120.5690 -136.4810 C.3   178  GLU178      0.1733
     73  C         28.3980 -120.1480 -136.7810 C.2   178  GLU178      0.2616
     74  O         28.1760 -119.0480 -137.2820 O.2   178  GLU178     -0.2715
     75  CB        30.0060 -121.2110 -135.0900 C.3   178  GLU178      0.0429
     76  CG        29.5200 -120.3940 -133.9140 C.3   178  GLU178      0.1163
     77  CD        28.0370 -120.5780 -133.6650 C.2   178  GLU178      0.3649
     78  OE1       27.3130 -119.5610 -133.6730 O.co2 178  GLU178     -0.2457
     79  OE2       27.5970 -121.7350 -133.4620 O.co2 178  GLU178     -0.2457
     80  N         27.4160 -120.9910 -136.4830 N.am  179  MET179     -0.1963
     81  CA        26.0410 -120.6230 -136.8110 C.3   179  MET179      0.1736
     82  C         24.9270 -121.0100 -135.8410 C.2   179  MET179      0.2616
     83  O         23.7840 -121.1550 -136.2590 O.2   179  MET179     -0.2715
     84  CB        25.6980 -121.1880 -138.1910 C.3   179  MET179      0.0427
     85  CG        26.4980 -120.5800 -139.3260 C.3   179  MET179      0.0599
     86  SD        26.3750 -121.5100 -140.8890 S.3   179  MET179     -0.1393
     87  CE        24.7370 -120.9320 -141.5260 C.3   179  MET179      0.0692
     88  N         25.2330 -121.1780 -134.5600 N.am  180  GLU180     -0.1977
     89  CA        24.1850 -121.5450 -133.6050 C.3   180  GLU180      0.1602
     90  C         24.4550 -121.0210 -132.1980 C.2   180  GLU180      0.2287
     91  O         23.5520 -120.9260 -131.3740 O.2   180  GLU180     -0.2864
     92  CB        24.0120 -123.0720 -133.5580 C.3   180  GLU180      0.0415
     93  CG        23.4820 -123.7050 -134.8590 C.3   180  GLU180      0.1163
     94  CD        24.5840 -124.0380 -135.8750 C.2   180  GLU180      0.3649
     95  OE1       24.2570 -124.2320 -137.0680 O.co2 180  GLU180     -0.2457
     96  OE2       25.7720 -124.1170 -135.4880 O.co2 180  GLU180     -0.2457
     97  N         37.1670 -126.4620 -138.2580 N.3   202  SER202     -0.1202
     98  CA        37.2410 -127.3570 -139.4030 C.3   202  SER202      0.2020
     99  C         37.9190 -126.7570 -140.6370 C.2   202  SER202      0.2618
    100  O         38.2230 -127.4830 -141.5790 O.2   202  SER202     -0.2717
    101  CB        35.8420 -127.8570 -139.7790 C.3   202  SER202      0.2103
    102  OG        35.0610 -126.8190 -140.3410 O.3   202  SER202     -0.2182
    103  N         38.1660 -125.4480 -140.6380 N.am  203  ASN203     -0.1974
    104  CA        38.7980 -124.8000 -141.7920 C.3   203  ASN203      0.1688
    105  C         39.1150 -123.3170 -141.5820 C.2   203  ASN203      0.2292
    106  O         38.9370 -122.7790 -140.4890 O.2   203  ASN203     -0.2864
    107  CB        37.8950 -124.9550 -143.0240 C.3   203  ASN203      0.1181
    108  CG        36.4840 -124.4110 -142.7950 C.2   203  ASN203      0.2629
    109  OD1       35.4980 -125.0140 -143.2150 O.2   203  ASN203     -0.2716
    110  ND2       36.3880 -123.2630 -142.1410 N.am  203  ASN203     -0.0877
    111  N         38.0530 -119.8040 -143.1520 N.3   205  ILE205     -0.1245
    112  CA        37.1270 -119.0730 -144.0130 C.3   205  ILE205      0.1561
    113  C         37.6300 -118.7860 -145.4220 C.2   205  ILE205      0.2260
    114  O         38.7930 -118.4230 -145.6230 O.2   205  ILE205     -0.2867
    115  CB        36.7110 -117.7400 -143.3880 C.3   205  ILE205      0.0252
    116  CG1       36.0780 -117.9930 -142.0270 C.3   205  ILE205      0.0019
    117  CG2       35.7480 -117.0180 -144.3200 C.3   205  ILE205      0.0019
    118  CD1       35.4320 -116.8100 -141.4600 C.3   205  ILE205      0.0001
@<TRIPOS>BOND
     1    58    56   ar
     2    58    59   ar
     3    56    54   ar
     4    51    52    2
     5    51    50    1
     6   114   113    2
     7   113   112    1
     8    59    57   ar
     9    54    53    1
    10    54    55   ar
    11    53    50    1
    12    50    49    1
    13   117   115    1
    14   112   115    1
    15   112   111    1
    16    57    55   ar
    17   115   116    1
    18    12    11    1
    19   109   108    2
    20   107   108    1
    21   107   104    1
    22   108   110   am
    23    11    10    1
    24   116   118    1
    25    48    46   ar
    26   104   105    1
    27   104   103    1
    28   105   106    2
    29   100    99    2
    30    47    46   ar
    31    87    86    1
    32    46    45    1
    33    86    85    1
    34    10     9    1
    35   103    99   am
    36    99    98    1
    37     9     6    1
    38   102   101    1
    39    45    44    1
    40    44    41    1
    41   101    98    1
    42    37    38    1
    43    37    36    1
    44    42    43    2
    45    42    41    1
    46    98    97    1
    47    85    84    1
    48     8     7    2
    49    69    70   ar
    50    69    67   ar
    51    70    68   ar
    52     6     7    1
    53     6     5    1
    54    67    65   ar
    55    38    39    2
    56    68    66   ar
    57    65    66   ar
    58    65    64    1
    59    41    40    1
    60    64    61    1
    61    36    33   am
    62    84    81    1
    63    63    62    2
    64    34    33    2
    65    33    32    1
    66    61    62    1
    67    61    60    1
    68    62    71   am
    69    29    28    1
    70    74    73    2
    71    95    94   ar
    72    32    31    1
    73    32    35    1
    74    28    30    1
    75    28    25    1
    76     4     3    2
    77    81    80    1
    78    81    82    1
    79    73    80   am
    80    73    72    1
    81    71    72    1
    82     3     2    1
    83    31    26   am
    84    72    75    1
    85    27    26    2
    86    83    82    2
    87    26    25    1
    88    94    96   ar
    89    94    93    1
    90    82    88   am
    91    25    24    1
    92     2     1    1
    93    75    76    1
    94    93    92    1
    95    88    89    1
    96    23    21    1
    97    76    77    1
    98    78    77   ar
    99    77    79   ar
   100    89    92    1
   101    89    90    1
   102    22    21    1
   103    21    20    2
   104    90    91    2
   105    20    19    1
   106    19    18    1
   107    18    17    1
   108    17    14    1
   109    15    14    1
   110    15    16    2
   111    14    13    1
