@<TRIPOS>MOLECULE
tmp/1odoA01.pdb
 105 99 0 0 0
SMALL
GASTEIGER

@<TRIPOS>ATOM
      1  N        -11.7240   -8.2370  -14.6910 N.3    75  TRP75      -0.1241
      2  CA       -11.4420   -9.2210  -13.6520 C.3    75  TRP75       0.1605
      3  C        -10.8940  -10.5370  -14.1900 C.2    75  TRP75       0.2264
      4  O        -10.2180  -11.2720  -13.4660 O.2    75  TRP75      -0.2867
      5  CB       -12.7040   -9.5110  -12.8300 C.3    75  TRP75       0.0550
      6  CG       -13.0700   -8.4100  -11.8880 C.ar   75  TRP75       0.0003
      7  CD1      -13.7110   -7.2440  -12.1920 C.ar   75  TRP75       0.0946
      8  CD2      -12.7700   -8.3520  -10.4880 C.ar   75  TRP75       0.0152
      9  NE1      -13.8280   -6.4600  -11.0680 N.ar   75  TRP75      -0.2442
     10  CE2      -13.2580   -7.1160  -10.0080 C.ar   75  TRP75       0.0810
     11  CE3      -12.1340   -9.2240   -9.5940 C.ar   75  TRP75       0.0012
     12  CZ2      -13.1290   -6.7290   -8.6700 C.ar   75  TRP75       0.0191
     13  CZ3      -12.0050   -8.8400   -8.2650 C.ar   75  TRP75       0.0001
     14  CH2      -12.5010   -7.5990   -7.8160 C.ar   75  TRP75       0.0015
     15  N         -7.1230   -9.5370  -17.4010 N.3    78  VAL78      -0.1245
     16  CA        -5.7600   -9.1370  -17.0630 C.3    78  VAL78       0.1561
     17  C         -4.8330  -10.3380  -17.1800 C.2    78  VAL78       0.2260
     18  O         -5.2800  -11.4820  -17.1750 O.2    78  VAL78      -0.2867
     19  CB        -5.6440   -8.5890  -15.6140 C.3    78  VAL78       0.0252
     20  CG1       -6.3300   -7.2280  -15.5020 C.3    78  VAL78       0.0019
     21  CG2       -6.2540   -9.5790  -14.6300 C.3    78  VAL78       0.0019
     22  N         -3.4600  -13.2670  -10.7590 N.3    82  PHE82      -0.1241
     23  CA        -4.8990  -13.3750  -10.5110 C.3    82  PHE82       0.1605
     24  C         -5.6360  -14.1990  -11.5720 C.2    82  PHE82       0.2264
     25  O         -6.7370  -14.6960  -11.3280 O.2    82  PHE82      -0.2867
     26  CB        -5.5090  -11.9650  -10.4340 C.3    82  PHE82       0.0534
     27  CG        -6.8960  -11.9180   -9.8400 C.ar   82  PHE82      -0.0203
     28  CD1       -7.0870  -12.0610   -8.4690 C.ar   82  PHE82      -0.0042
     29  CD2       -8.0080  -11.7060  -10.6520 C.ar   82  PHE82      -0.0042
     30  CE1       -8.3660  -11.9900   -7.9140 C.ar   82  PHE82      -0.0003
     31  CE2       -9.2910  -11.6340  -10.1090 C.ar   82  PHE82      -0.0003
     32  CZ        -9.4700  -11.7750   -8.7380 C.ar   82  PHE82      -0.0000
     33  N        -13.3340    0.0120  -10.5660 N.3   168  VAL168     -0.1231
     34  CA       -13.0960   -1.4150  -10.7690 C.3   168  VAL168      0.1692
     35  C        -14.0930   -2.2620   -9.9780 C.2   168  VAL168      0.2592
     36  O        -14.4870   -3.3440  -10.4220 O.2   168  VAL168     -0.2718
     37  CB       -11.6520   -1.8030  -10.3720 C.3   168  VAL168      0.0266
     38  CG1      -11.4800   -3.3200  -10.4180 C.3   168  VAL168      0.0020
     39  CG2      -10.6610   -1.1390  -11.3260 C.3   168  VAL168      0.0020
     40  N        -14.5050   -1.7660   -8.8140 N.am  169  PHE169     -0.1976
     41  CA       -15.4590   -2.4910   -7.9790 C.3   169  PHE169      0.1639
     42  C        -16.9070   -2.0340   -8.1570 C.2   169  PHE169      0.2290
     43  O        -17.8180   -2.5970   -7.5510 O.2   169  PHE169     -0.2864
     44  CB       -15.0710   -2.3850   -6.5010 C.3   169  PHE169      0.0560
     45  CG       -13.8440   -3.1740   -6.1430 C.ar  169  PHE169     -0.0200
     46  CD1      -12.5760   -2.6900   -6.4470 C.ar  169  PHE169     -0.0042
     47  CD2      -13.9570   -4.4150   -5.5260 C.ar  169  PHE169     -0.0042
     48  CE1      -11.4350   -3.4320   -6.1390 C.ar  169  PHE169     -0.0003
     49  CE2      -12.8250   -5.1650   -5.2150 C.ar  169  PHE169     -0.0003
     50  CZ       -11.5600   -4.6710   -5.5230 C.ar  169  PHE169     -0.0000
     51  N         -1.5790   -3.1110  -11.7960 N.3   226  LEU226     -0.1231
     52  CA        -2.9990   -2.7960  -11.6590 C.3   226  LEU226      0.1693
     53  C         -3.5490   -3.5590  -10.4560 C.2   226  LEU226      0.2591
     54  O         -4.2520   -2.9980   -9.6140 O.2   226  LEU226     -0.2718
     55  CB        -3.7530   -3.1960  -12.9350 C.3   226  LEU226      0.0284
     56  CG        -5.2490   -2.8610  -13.0200 C.3   226  LEU226      0.0019
     57  CD1       -5.6690   -2.7850  -14.4760 C.3   226  LEU226      0.0001
     58  CD2       -6.0740   -3.9000  -12.2690 C.3   226  LEU226      0.0001
     59  N         -3.2130   -4.8410  -10.3850 N.am  227  LEU227     -0.1980
     60  CA        -3.6590   -5.7030   -9.2970 C.3   227  LEU227      0.1596
     61  C         -3.1820   -5.2190   -7.9310 C.2   227  LEU227      0.2287
     62  O         -3.9740   -5.0760   -6.9980 O.2   227  LEU227     -0.2864
     63  CB        -3.1460   -7.1310   -9.5250 C.3   227  LEU227      0.0297
     64  CG        -3.2790   -8.1240   -8.3630 C.3   227  LEU227      0.0022
     65  CD1       -4.7500   -8.3400   -8.0140 C.3   227  LEU227      0.0001
     66  CD2       -2.6420   -9.4500   -8.7620 C.3   227  LEU227      0.0001
     67  N         -4.7190   -1.6800   -7.0810 N.3   230  SER230     -0.1202
     68  CA        -6.1470   -1.7920   -6.7970 C.3   230  SER230      0.2020
     69  C         -6.3850   -2.4710   -5.4520 C.2   230  SER230      0.2618
     70  O         -7.2510   -2.0570   -4.6790 O.2   230  SER230     -0.2717
     71  CB        -6.8530   -2.5880   -7.8940 C.3   230  SER230      0.2103
     72  OG        -6.7920   -1.9120   -9.1360 O.3   230  SER230     -0.2182
     73  N         -5.6120   -3.5160   -5.1720 N.am  231  ALA231     -0.1979
     74  CA        -5.7530   -4.2420   -3.9160 C.3   231  ALA231      0.1597
     75  C         -5.4220   -3.3610   -2.7150 C.2   231  ALA231      0.2287
     76  O         -6.0290   -3.4910   -1.6540 O.2   231  ALA231     -0.2864
     77  CB        -4.8550   -5.4670   -3.9270 C.3   231  ALA231      0.0319
     78  N        -10.7890   -2.5500   -0.7650 N.3   235  THR235     -0.1218
     79  CA       -10.8360   -3.7480    0.0650 C.3   235  THR235      0.1862
     80  C        -10.4210   -3.5660    1.5270 C.2   235  THR235      0.2287
     81  O        -11.2610   -3.7240    2.4120 O.2   235  THR235     -0.2866
     82  CB       -10.0120   -4.8790   -0.5700 C.3   235  THR235      0.1770
     83  OG1       -9.9850   -4.7040   -1.9920 O.3   235  THR235     -0.2211
     84  CG2      -10.6630   -6.2170   -0.2790 C.3   235  THR235      0.0375
     85  N        -14.7340   -8.7770    0.4050 N.3   278  VAL278     -0.1245
     86  CA       -15.0330   -9.2840   -0.9340 C.3   278  VAL278      0.1561
     87  C        -16.0760  -10.3940   -0.7910 C.2   278  VAL278      0.2260
     88  O        -15.7810  -11.4720   -0.2760 O.2   278  VAL278     -0.2867
     89  CB       -13.7620   -9.8390   -1.6050 C.3   278  VAL278      0.0252
     90  CG1      -14.1020  -10.4560   -2.9560 C.3   278  VAL278      0.0019
     91  CG2      -12.7470   -8.7160   -1.7710 C.3   278  VAL278      0.0019
     92  N        -16.0530  -13.7930   -5.7280 N.3   281  LEU281     -0.1245
     93  CA       -14.8130  -13.6550   -6.4830 C.3   281  LEU281      0.1561
     94  C        -14.8570  -14.1830   -7.9130 C.2   281  LEU281      0.2260
     95  O        -14.8420  -15.3860   -8.1410 O.2   281  LEU281     -0.2867
     96  CB       -13.6730  -14.3490   -5.7170 C.3   281  LEU281      0.0270
     97  CG       -12.2010  -14.0070   -6.0110 C.3   281  LEU281      0.0019
     98  CD1      -11.7950  -14.4770   -7.4060 C.3   281  LEU281      0.0001
     99  CD2      -12.0020  -12.5050   -5.8660 C.3   281  LEU281      0.0001
    100  N         -5.0360  -14.7590   -0.6480 N.3   343  CYS343     -0.1235
    101  CA        -4.6170  -13.3610   -0.6590 C.3   343  CYS343      0.1677
    102  C         -3.1660  -13.1220   -0.2470 C.2   343  CYS343      0.2270
    103  O         -2.7820  -13.3710    0.8920 O.2   343  CYS343     -0.2867
    104  CB        -5.5180  -12.5200    0.2350 C.3   343  CYS343      0.0956
    105  SG        -5.0600  -10.7800    0.1660 S.3   343  CYS343     -0.0801
@<TRIPOS>BOND
     1    15    16    1
     2    17    18    2
     3    17    16    1
     4    16    19    1
     5    19    20    1
     6    19    21    1
     7     1     2    1
     8    57    56    1
     9     3     2    1
    10     3     4    2
    11     2     5    1
    12    56    55    1
    13    56    58    1
    14    55    52    1
    15     5     6    1
    16     7     6   ar
    17     7     9   ar
    18     6     8   ar
    19    51    52    1
    20    52    53    1
    21    24    25    2
    22    24    23    1
    23    39    37    1
    24     9    10   ar
    25    34    33    1
    26    34    37    1
    27    34    35    1
    28    22    23    1
    29    29    31   ar
    30    29    27   ar
    31    23    26    1
    32     8    10   ar
    33     8    11   ar
    34    53    59   am
    35    53    54    2
    36    26    27    1
    37    36    35    2
    38    38    37    1
    39    59    60    1
    40    31    32   ar
    41    10    12   ar
    42    35    40   am
    43    27    28   ar
    44    11    13   ar
    45    63    60    1
    46    63    64    1
    47    60    61    1
    48    72    71    1
    49    40    41    1
    50    66    64    1
    51    32    30   ar
    52    12    14   ar
    53    28    30   ar
    54    64    65    1
    55    13    14   ar
    56    42    41    1
    57    42    43    2
    58    95    94    2
    59    41    44    1
    60    61    62    2
    61    94    93    1
    62    71    68    1
    63    98    97    1
    64    67    68    1
    65    68    69    1
    66    44    45    1
    67    93    92    1
    68    93    96    1
    69    46    45   ar
    70    46    48   ar
    71    45    47   ar
    72    48    50   ar
    73    97    99    1
    74    97    96    1
    75    47    49   ar
    76    50    49   ar
    77    69    73   am
    78    69    70    2
    79    73    74    1
    80    77    74    1
    81    74    75    1
    82    90    89    1
    83    75    76    2
    84    83    82    1
    85    91    89    1
    86    89    86    1
    87    86    87    1
    88    86    85    1
    89    87    88    2
    90    78    79    1
    91   101   100    1
    92   101   102    1
    93   101   104    1
    94    82    84    1
    95    82    79    1
    96   102   103    2
    97    79    80    1
    98   105   104    1
    99    80    81    2
