@<TRIPOS>MOLECULE
tmp/1oduA00.pdb
 156 155 0 0 0
SMALL
GASTEIGER

@<TRIPOS>ATOM
      1  N        -29.7920   16.6470   65.3790 N.3    26  PHE26      -0.1241
      2  CA       -28.3620   16.5750   65.6580 C.3    26  PHE26       0.1605
      3  C        -28.1920   17.0380   67.1000 C.2    26  PHE26       0.2264
      4  O        -28.9550   17.8870   67.5640 O.2    26  PHE26      -0.2867
      5  CB       -27.5950   17.5360   64.7320 C.3    26  PHE26       0.0534
      6  CG       -26.3440   16.9660   64.1100 C.ar   26  PHE26      -0.0203
      7  CD1      -25.6310   15.9270   64.6900 C.ar   26  PHE26      -0.0042
      8  CD2      -25.8660   17.5160   62.9340 C.ar   26  PHE26      -0.0042
      9  CE1      -24.4850   15.4400   64.0890 C.ar   26  PHE26      -0.0003
     10  CE2      -24.7250   17.0320   62.3300 C.ar   26  PHE26      -0.0003
     11  CZ       -24.0360   15.9930   62.9040 C.ar   26  PHE26      -0.0000
     12  N        -24.8890   18.3580   69.3010 N.3    28  HIS28      -0.1241
     13  CA       -23.4940   18.6330   69.6050 C.3    28  HIS28       0.1621
     14  C        -23.3640   18.9460   71.0900 C.2    28  HIS28       0.2264
     15  O        -23.8120   19.9850   71.5740 O.2    28  HIS28      -0.2867
     16  CB       -22.9660   19.7870   68.7760 C.3    28  HIS28       0.0745
     17  CG       -22.6560   19.4300   67.3590 C.ar   28  HIS28       0.0817
     18  ND1      -23.6350   19.1230   66.4390 N.ar   28  HIS28      -0.2268
     19  CD2      -21.4800   19.3740   66.6900 C.ar   28  HIS28       0.1154
     20  CE1      -23.0750   18.8810   65.2690 C.ar   28  HIS28       0.1986
     21  NE2      -21.7690   19.0250   65.3930 N.ar   28  HIS28      -0.2212
     22  N        -17.9260   28.6610   65.7690 N.3    49  TYR49      -0.1241
     23  CA       -18.3400   27.3450   66.2510 C.3    49  TYR49       0.1605
     24  C        -17.7280   27.0820   67.6260 C.2    49  TYR49       0.2264
     25  O        -16.5060   27.0250   67.7680 O.2    49  TYR49      -0.2867
     26  CB       -17.8890   26.2560   65.2720 C.3    49  TYR49       0.0534
     27  CG       -18.6100   26.2240   63.9310 C.ar   49  TYR49      -0.0201
     28  CD1      -19.4490   27.2600   63.5210 C.ar   49  TYR49      -0.0009
     29  CD2      -18.4330   25.1510   63.0610 C.ar   49  TYR49      -0.0009
     30  CE1      -20.0910   27.2220   62.2940 C.ar   49  TYR49       0.0417
     31  CE2      -19.0750   25.1080   61.8270 C.ar   49  TYR49       0.0417
     32  CZ       -19.9020   26.1460   61.4560 C.ar   49  TYR49       0.1957
     33  OH       -20.5360   26.1020   60.2390 O.3    49  TYR49      -0.2866
     34  N        -17.8100   24.3610   69.3390 N.3    51  GLU51      -0.1231
     35  CA       -17.2040   23.0160   69.4070 C.3    51  GLU51       0.1699
     36  C        -15.7100   23.0620   69.1140 C.2    51  GLU51       0.2592
     37  O        -14.9590   22.2100   69.5800 O.2    51  GLU51      -0.2718
     38  CB       -17.8440   22.0110   68.4320 C.3    51  GLU51       0.0402
     39  CG       -19.2410   22.3320   67.9340 C.3    51  GLU51       0.1161
     40  CD       -19.2310   23.1440   66.6560 C.2    51  GLU51       0.3649
     41  OE1      -18.7300   22.6490   65.6340 O.co2  51  GLU51      -0.2457
     42  OE2      -19.7220   24.2840   66.6700 O.co2  51  GLU51      -0.2457
     43  N        -15.2960   24.0500   68.3240 N.am   52  TRP52      -0.1976
     44  CA       -13.8890   24.2650   67.9810 C.3    52  TRP52       0.1640
     45  C        -13.1260   25.0740   69.0400 C.2    52  TRP52       0.2290
     46  O        -12.0420   25.5700   68.7630 O.2    52  TRP52      -0.2864
     47  CB       -13.7890   24.9710   66.6180 C.3    52  TRP52       0.0576
     48  CG       -14.0850   24.0740   65.4720 C.ar   52  TRP52       0.0006
     49  CD1      -15.2840   23.5070   65.1630 C.ar   52  TRP52       0.0946
     50  CD2      -13.1610   23.6210   64.4810 C.ar   52  TRP52       0.0152
     51  NE1      -15.1670   22.7280   64.0380 N.ar   52  TRP52      -0.2442
     52  CE2      -13.8720   22.7800   63.5960 C.ar   52  TRP52       0.0810
     53  CE3      -11.7960   23.8370   64.2500 C.ar   52  TRP52       0.0012
     54  CZ2      -13.2680   22.1590   62.4990 C.ar   52  TRP52       0.0191
     55  CZ3      -11.1950   23.2200   63.1640 C.ar   52  TRP52       0.0001
     56  CH2      -11.9320   22.3890   62.2990 C.ar   52  TRP52       0.0015
     57  N        -16.3780   14.2650   69.1490 N.3   113  HIS113     -0.1226
     58  CA       -16.0920   15.3430   68.2130 C.3   113  HIS113      0.1752
     59  C        -14.5710   15.4820   68.0330 C.2   113  HIS113      0.2596
     60  O        -13.8040   14.6200   68.4630 O.2   113  HIS113     -0.2718
     61  CB       -16.7390   16.6460   68.6840 C.3   113  HIS113      0.0759
     62  CG       -17.1010   17.5690   67.5640 C.ar  113  HIS113      0.0818
     63  ND1      -16.2800   18.5990   67.1620 N.ar  113  HIS113     -0.2268
     64  CD2      -18.1800   17.6060   66.7480 C.ar  113  HIS113      0.1154
     65  CE1      -16.8390   19.2370   66.1520 C.ar  113  HIS113      0.1986
     66  NE2      -17.9950   18.6560   65.8830 N.ar  113  HIS113     -0.2212
     67  N        -14.1440   16.5570   67.3810 N.am  114  HIS114     -0.1975
     68  CA       -12.7460   16.7600   67.0380 C.3   114  HIS114      0.1656
     69  C        -11.8160   16.7300   68.2400 C.2   114  HIS114      0.2291
     70  O        -10.6750   16.3260   68.1040 O.2   114  HIS114     -0.2864
     71  CB       -12.5560   18.0950   66.3110 C.3   114  HIS114      0.0771
     72  CG       -13.4390   18.2730   65.1160 C.ar  114  HIS114      0.0820
     73  ND1      -13.9540   17.2120   64.4070 N.ar  114  HIS114     -0.2267
     74  CD2      -13.9000   19.3910   64.5110 C.ar  114  HIS114      0.1154
     75  CE1      -14.6970   17.6690   63.4150 C.ar  114  HIS114      0.1986
     76  NE2      -14.6780   18.9880   63.4540 N.ar  114  HIS114     -0.2212
     77  N        -22.8070   10.2580   65.5770 N.3   156  TYR156     -0.1241
     78  CA       -21.7630   11.0670   64.9650 C.3   156  TYR156      0.1605
     79  C        -20.4240   10.6140   65.5430 C.2   156  TYR156      0.2264
     80  O        -20.3190   10.3310   66.7310 O.2   156  TYR156     -0.2867
     81  CB       -22.0180   12.5580   65.2320 C.3   156  TYR156      0.0534
     82  CG       -20.8830   13.4960   64.8650 C.ar  156  TYR156     -0.0201
     83  CD1      -20.9640   14.3110   63.7420 C.ar  156  TYR156     -0.0009
     84  CD2      -19.7390   13.5900   65.6560 C.ar  156  TYR156     -0.0009
     85  CE1      -19.9260   15.1840   63.4030 C.ar  156  TYR156      0.0417
     86  CE2      -18.7050   14.4490   65.3250 C.ar  156  TYR156      0.0417
     87  CZ       -18.8010   15.2440   64.2020 C.ar  156  TYR156      0.1957
     88  OH       -17.7660   16.0970   63.8970 O.3   156  TYR156     -0.2866
     89  N        -22.7500    8.3610   61.2650 N.3   207  TRP207     -0.1241
     90  CA       -22.4630    9.6960   60.7500 C.3   207  TRP207      0.1605
     91  C        -21.0080   10.0670   61.0220 C.2   207  TRP207      0.2264
     92  O        -20.7040   10.6820   62.0380 O.2   207  TRP207     -0.2867
     93  CB       -23.4120   10.7160   61.4010 C.3   207  TRP207      0.0550
     94  CG       -23.8900   11.8000   60.4890 C.ar  207  TRP207      0.0003
     95  CD1      -25.0540   11.8160   59.7810 C.ar  207  TRP207      0.0946
     96  CD2      -23.2340   13.0450   60.2050 C.ar  207  TRP207      0.0152
     97  NE1      -25.1640   12.9890   59.0700 N.ar  207  TRP207     -0.2442
     98  CE2      -24.0600   13.7610   59.3080 C.ar  207  TRP207      0.0810
     99  CE3      -22.0270   13.6260   60.6080 C.ar  207  TRP207      0.0012
    100  CZ2      -23.7210   15.0160   58.8110 C.ar  207  TRP207      0.0191
    101  CZ3      -21.6900   14.8820   60.1160 C.ar  207  TRP207      0.0001
    102  CH2      -22.5350   15.5600   59.2250 C.ar  207  TRP207      0.0015
    103  N        -17.3560   12.0700   60.3040 N.3   209  ASP209     -0.1225
    104  CA       -16.9770   13.4350   59.9420 C.3   209  ASP209      0.1805
    105  C        -15.4830   13.6060   59.6420 C.2   209  ASP209      0.2597
    106  O        -14.6330   12.9380   60.2240 O.2   209  ASP209     -0.2718
    107  CB       -17.3720   14.4030   61.0590 C.3   209  ASP209      0.1424
    108  CG       -17.4200   15.8430   60.5930 C.2   209  ASP209      0.3668
    109  OD1      -17.3950   16.7530   61.4390 O.co2 209  ASP209     -0.2456
    110  OD2      -17.4860   16.1620   59.3940 O.co2 209  ASP209     -0.2456
    111  N        -15.2030   14.5190   58.7130 N.am  210  MET210     -0.1979
    112  CA       -13.8540   14.9640   58.3450 C.3   210  MET210      0.1605
    113  C        -13.0400   13.8710   57.6480 C.2   210  MET210      0.2287
    114  O        -11.8130   13.8510   57.7050 O.2   210  MET210     -0.2864
    115  CB       -13.1160   15.5600   59.5540 C.3   210  MET210      0.0413
    116  CG       -13.6880   16.9010   60.0360 C.3   210  MET210      0.0598
    117  SD       -13.7220   18.2510   58.7600 S.3   210  MET210     -0.1393
    118  CE       -11.9850   18.2550   58.1510 C.3   210  MET210      0.0692
    119  N        -19.0030   10.9390   54.4560 N.3   239  ARG239     -0.1245
    120  CA       -17.8230   11.6510   54.9280 C.3   239  ARG239      0.1563
    121  C        -16.7000   10.7070   55.3560 C.2   239  ARG239      0.2260
    122  O        -15.9710   10.9990   56.3060 O.2   239  ARG239     -0.2867
    123  CB       -18.2150   12.5580   56.0850 C.3   239  ARG239      0.0307
    124  CG       -19.2760   13.5790   55.7300 C.3   239  ARG239      0.0489
    125  CD       -19.3080   14.7720   56.6690 C.3   239  ARG239      0.2205
    126  NE       -20.3050   15.7540   56.2620 N.pl3 239  ARG239     -0.0865
    127  CZ       -20.4850   16.9340   56.8400 C.cat 239  ARG239      0.5346
    128  NH1      -19.7410   17.3000   57.8710 N.pl3 239  ARG239      0.1354
    129  NH2      -21.4260   17.7540   56.3900 N.pl3 239  ARG239      0.1354
    130  N        -23.7130   21.4980   54.2660 N.3   251  GLU251     -0.1245
    131  CA       -23.7290   22.5550   55.2840 C.3   251  GLU251      0.1567
    132  C        -23.9150   23.9320   54.6480 C.2   251  GLU251      0.2260
    133  O        -24.4160   24.8590   55.2960 O.2   251  GLU251     -0.2867
    134  CB       -22.4310   22.5290   56.0990 C.3   251  GLU251      0.0388
    135  CG       -22.3690   21.3970   57.1110 C.3   251  GLU251      0.1160
    136  CD       -21.1650   21.5010   58.0330 C.2   251  GLU251      0.3649
    137  OE1      -21.0560   22.5230   58.7520 O.co2 251  GLU251     -0.2457
    138  OE2      -20.3290   20.5660   58.0390 O.co2 251  GLU251     -0.2457
    139  N        -27.7590   19.6060   56.9530 N.3   261  THR261     -0.1218
    140  CA       -27.5650   19.8080   58.3820 C.3   261  THR261      0.1862
    141  C        -27.2710   21.2690   58.6830 C.2   261  THR261      0.2287
    142  O        -26.4710   21.9150   58.0040 O.2   261  THR261     -0.2866
    143  CB       -26.4470   18.9050   58.9580 C.3   261  THR261      0.1770
    144  OG1      -26.1550   19.3090   60.2990 O.3   261  THR261     -0.2211
    145  CG2      -25.1190   19.0950   58.2500 C.3   261  THR261      0.0375
    146  N        -22.8590   25.1510   66.4360 N.3   268  PHE268     -0.1241
    147  CA       -23.3930   23.8080   66.6510 C.3   268  PHE268      0.1605
    148  C        -23.3880   23.4550   68.1390 C.2   268  PHE268      0.2264
    149  O        -24.3950   22.9980   68.6800 O.2   268  PHE268     -0.2867
    150  CB       -22.6160   22.7730   65.8320 C.3   268  PHE268      0.0534
    151  CG       -23.0320   22.7190   64.3930 C.ar  268  PHE268     -0.0203
    152  CD1      -22.3510   23.4480   63.4290 C.ar  268  PHE268     -0.0042
    153  CD2      -24.1210   21.9570   64.0060 C.ar  268  PHE268     -0.0042
    154  CE1      -22.7460   23.4080   62.1010 C.ar  268  PHE268     -0.0003
    155  CE2      -24.5230   21.9120   62.6820 C.ar  268  PHE268     -0.0003
    156  CZ       -23.8350   22.6360   61.7280 C.ar  268  PHE268     -0.0000
@<TRIPOS>BOND
     1   130   131    1
     2   119   120    1
     3   132   131    1
     4   132   133    2
     5   120   121    1
     6   120   123    1
     7   131   134    1
     8   121   122    2
     9   124   123    1
    10   124   125    1
    11   134   135    1
    12   126   125    1
    13   126   127    2
    14   129   127    1
    15   127   128    1
    16   139   140    1
    17   135   136    1
    18   113   114    2
    19   113   112    1
    20   142   141    2
    21   136   138   ar
    22   136   137   ar
    23   118   117    1
    24   145   143    1
    25   112   111    1
    26   112   115    1
    27   140   141    1
    28   140   143    1
    29   111   105   am
    30   117   116    1
    31   100   102   ar
    32   100    98   ar
    33   143   144    1
    34    97    98   ar
    35    97    95   ar
    36   102   101   ar
    37    98    96   ar
    38   110   108   ar
    39   115   116    1
    40   105   104    1
    41   105   106    2
    42    95    94   ar
    43   104   103    1
    44   104   107    1
    45   101    99   ar
    46    96    94   ar
    47    96    99   ar
    48    33    32    1
    49    94    93    1
    50   108   107    1
    51   108   109   ar
    52    90    91    1
    53    90    89    1
    54    90    93    1
    55    91    92    2
    56    32    31   ar
    57    32    30   ar
    58   156   154   ar
    59   156   155   ar
    60    31    29   ar
    61   154   152   ar
    62    30    28   ar
    63    56    54   ar
    64    56    55   ar
    65    10    11   ar
    66    10     8   ar
    67    54    52   ar
    68   155   153   ar
    69    11     9   ar
    70     8     6   ar
    71    29    27   ar
    72    55    53   ar
    73    85    83   ar
    74    85    87   ar
    75    75    76   ar
    76    75    73   ar
    77   152   151   ar
    78    76    74   ar
    79    28    27   ar
    80    52    51   ar
    81    52    50   ar
    82    83    82   ar
    83    88    87    1
    84    27    26    1
    85   153   151   ar
    86    51    49   ar
    87     9     7   ar
    88     6     7   ar
    89     6     5    1
    90    87    86   ar
    91    53    50   ar
    92   151   150    1
    93    73    72   ar
    94    50    48   ar
    95    74    72   ar
    96     5     2    1
    97    82    81    1
    98    82    84   ar
    99    78    81    1
   100    78    79    1
   101    78    77    1
   102    72    71    1
   103    49    48   ar
   104    20    21   ar
   105    20    18   ar
   106    26    23    1
   107    86    84   ar
   108     1     2    1
   109    21    19   ar
   110    48    47    1
   111    79    80    2
   112    41    40   ar
   113     2     3    1
   114    22    23    1
   115   150   147    1
   116    66    65   ar
   117    66    64   ar
   118    65    63   ar
   119    23    24    1
   120    71    68    1
   121   146   147    1
   122    18    17   ar
   123    47    44    1
   124   147   148    1
   125    40    42   ar
   126    40    39    1
   127    19    17   ar
   128    64    62   ar
   129    68    67    1
   130    68    69    1
   131     3     4    2
   132    63    62   ar
   133    17    16    1
   134    67    59   am
   135    62    61    1
   136    24    25    2
   137    39    38    1
   138    44    43    1
   139    44    45    1
   140    59    58    1
   141    59    60    2
   142    70    69    2
   143   148   149    2
   144    58    61    1
   145    58    57    1
   146    43    36   am
   147    38    35    1
   148    46    45    2
   149    16    13    1
   150    36    35    1
   151    36    37    2
   152    12    13    1
   153    34    35    1
   154    13    14    1
   155    14    15    2
