@<TRIPOS>MOLECULE
tmp/1odwA00.pdb
 112 105 0 0 0
SMALL
GASTEIGER

@<TRIPOS>ATOM
      1  N          3.9500   -4.9230   28.2860 N.3     8  ARG8       -0.1245
      2  CA         3.2770   -4.2900   27.1640 C.3     8  ARG8        0.1563
      3  C          2.1970   -3.3660   27.7700 C.2     8  ARG8        0.2260
      4  O          1.4160   -3.7370   28.6800 O.2     8  ARG8       -0.2867
      5  CB         2.6500   -5.3760   26.3460 C.3     8  ARG8        0.0307
      6  CG         3.5540   -6.2770   25.5160 C.3     8  ARG8        0.0489
      7  CD         2.6940   -6.9180   24.4970 C.3     8  ARG8        0.2205
      8  NE         3.2860   -7.3280   23.2740 N.pl3   8  ARG8       -0.0865
      9  CZ         3.9870   -8.4350   22.9630 C.cat   8  ARG8        0.5346
     10  NH1        4.2830   -9.3200   23.9130 N.pl3   8  ARG8        0.1354
     11  NH2        4.3920   -8.6240   21.6850 N.pl3   8  ARG8        0.1354
     12  N         -2.9700   -2.0930   22.4580 N.3    23  LEU23      -0.1245
     13  CA        -1.6530   -1.5870   22.8930 C.3    23  LEU23       0.1561
     14  C         -1.5380   -0.1360   22.7020 C.2    23  LEU23       0.2260
     15  O         -2.0260    0.3100   21.6050 O.2    23  LEU23      -0.2867
     16  CB        -0.7150   -2.4710   22.0150 C.3    23  LEU23       0.0270
     17  CG         0.7940   -2.2770   21.9950 C.3    23  LEU23       0.0019
     18  CD1        1.3990   -2.7280   23.2430 C.3    23  LEU23       0.0001
     19  CD2        1.4230   -3.1530   20.8550 C.3    23  LEU23       0.0001
     20  N          0.6260    2.5460   21.4920 N.3    25  ASP25      -0.1239
     21  CA         1.8180    2.4820   20.6400 C.3    25  ASP25       0.1674
     22  C          2.2430    3.7920   20.1070 C.2    25  ASP25       0.2266
     23  O          1.7050    4.2950   19.1220 O.2    25  ASP25      -0.2867
     24  CB         1.3350    1.4670   19.5620 C.3    25  ASP25       0.1410
     25  CG         2.4700    1.0500   18.6530 C.2    25  ASP25       0.3668
     26  OD1        3.5040    1.7190   18.6620 O.co2  25  ASP25      -0.2456
     27  OD2        2.3160    0.1010   17.9000 O.co2  25  ASP25      -0.2456
     28  N          4.7330    4.2670   18.4750 N.3    27  GLY27      -0.1210
     29  CA         5.4090    4.0070   17.2240 C.3    27  GLY27       0.1956
     30  C          4.4460    4.0700   16.0460 C.2    27  GLY27       0.2612
     31  O          4.8950    4.2940   14.8780 O.2    27  GLY27      -0.2717
     32  N          3.1620    3.9510   16.2910 N.am   28  ALA28      -0.1965
     33  CA         2.1780    3.9350   15.2370 C.3    28  ALA28       0.1728
     34  C          1.5060    5.2730   15.0090 C.2    28  ALA28       0.2616
     35  O          1.0560    5.9410   15.9500 O.2    28  ALA28      -0.2715
     36  CB         1.1160    2.8950   15.4120 C.3    28  ALA28       0.0334
     37  N          1.4780    5.6040   13.7020 N.am   29  ASP29      -0.1957
     38  CA         0.8090    6.8920   13.3450 C.3    29  ASP29       0.1840
     39  C         -0.7240    6.7760   13.3810 C.2    29  ASP29       0.2622
     40  O         -1.4080    7.7550   13.7010 O.2    29  ASP29      -0.2715
     41  CB         1.2360    7.3980   12.0300 C.3    29  ASP29       0.1450
     42  CG         2.6910    7.7440   11.8300 C.2    29  ASP29       0.3671
     43  OD1        3.5680    7.8140   12.6850 O.co2  29  ASP29      -0.2456
     44  OD2        2.7760    7.9710   10.5920 O.co2  29  ASP29      -0.2456
     45  N         -1.2370    5.6200   13.1750 N.am   30  ASP30      -0.1971
     46  CA        -2.6410    5.2310   13.0670 C.3    30  ASP30       0.1709
     47  C         -2.9050    4.0820   13.9740 C.2    30  ASP30       0.2293
     48  O         -2.0640    3.4200   14.5550 O.2    30  ASP30      -0.2864
     49  CB        -2.9590    4.9260   11.5560 C.3    30  ASP30       0.1436
     50  CG        -2.7890    6.2450   10.7430 C.2    30  ASP30       0.3671
     51  OD1       -3.5070    7.2770   10.9310 O.co2  30  ASP30      -0.2456
     52  OD2       -1.8310    6.2560    9.9640 O.co2  30  ASP30      -0.2456
     53  N         -4.9210    0.6880   14.2550 N.3    32  VAL32      -0.1245
     54  CA        -5.2720   -0.5300   13.5470 C.3    32  VAL32       0.1561
     55  C         -5.8830   -1.5510   14.5500 C.2    32  VAL32       0.2260
     56  O         -5.2380   -1.9740   15.5160 O.2    32  VAL32      -0.2867
     57  CB        -4.0640   -1.0940   12.7920 C.3    32  VAL32       0.0252
     58  CG1       -4.4570   -2.1860   11.7830 C.3    32  VAL32       0.0019
     59  CG2       -3.2430   -0.0290   12.0590 C.3    32  VAL32       0.0019
     60  N         -1.6760    0.0540    4.3260 N.3    47  ILE47      -0.1231
     61  CA        -0.7610    0.7010    5.3070 C.3    47  ILE47       0.1692
     62  C          0.4220   -0.2380    5.5200 C.2    47  ILE47       0.2593
     63  O          0.2860   -1.4760    5.5410 O.2    47  ILE47      -0.2718
     64  CB        -1.4730    1.0500    6.6590 C.3    47  ILE47       0.0266
     65  CG1       -2.2030   -0.2740    7.1010 C.3    47  ILE47       0.0019
     66  CG2       -2.4850    2.2060    6.5690 C.3    47  ILE47       0.0020
     67  CD1       -2.0850   -0.4660    8.6290 C.3    47  ILE47       0.0001
     68  N          1.5820    0.3920    5.7330 N.am   48  GLY48      -0.1942
     69  CA         2.8050   -0.3410    5.9490 C.3    48  GLY48       0.2014
     70  C          3.3540   -0.3180    7.3510 C.2    48  GLY48       0.2639
     71  O          3.2370    0.7140    7.9950 O.2    48  GLY48      -0.2714
     72  N          3.9290   -1.3990    7.7780 N.am   49  GLY49      -0.1939
     73  CA         4.4970   -1.6020    9.0960 C.3    49  GLY49       0.2014
     74  C          5.8940   -2.1480    8.8260 C.2    49  GLY49       0.2635
     75  O          6.2390   -2.0560    7.6100 O.2    49  GLY49      -0.2714
     76  N          6.6370   -2.6010    9.8000 N.am   50  ILE50      -0.2030
     77  CA         7.9910   -3.0680    9.4690 C.3    50  ILE50       0.1282
     78  C          7.9610   -4.2870    8.5790 C.3    50  ILE50       0.2035
     79  O          9.0090   -4.4530    7.8620 O.3    50  ILE50      -0.2185
     80  CB         9.0460   -3.2910   10.6400 C.3    50  ILE50       0.0226
     81  CG1        8.3540   -4.2730   11.5800 C.3    50  ILE50       0.0018
     82  CG2        9.7400   -2.0860   11.3040 C.3    50  ILE50       0.0018
     83  CD1        8.7010   -5.6920   10.9860 C.3    50  ILE50       0.0001
     84  N         -4.3730   -7.6000   11.8190 N.3    80  THR80      -0.1204
     85  CA        -3.3290   -7.3130   12.7920 C.3    80  THR80       0.1979
     86  C         -3.3200   -8.3120   13.8950 C.2    80  THR80       0.2460
     87  O         -4.4050   -8.6320   14.3420 O.2    80  THR80      -0.2732
     88  CB        -3.6090   -5.8570   13.3660 C.3    80  THR80       0.1783
     89  OG1       -2.4540   -5.7630   14.2400 O.3    80  THR80      -0.2211
     90  CG2       -4.9760   -5.6290   14.0460 C.3    80  THR80       0.0376
     91  N         -2.1670   -8.7740   14.3430 N.am   81  PRO81      -0.2717
     92  CA        -2.0010   -9.7090   15.4580 C.3    81  PRO81       0.1535
     93  C         -2.4420   -9.1240   16.7770 C.2    81  PRO81       0.2595
     94  O         -2.8580   -9.8640   17.7250 O.2    81  PRO81      -0.2716
     95  CB        -0.5080  -10.0360   15.3500 C.3    81  PRO81       0.0310
     96  CG         0.1040   -8.7660   14.8350 C.3    81  PRO81       0.0237
     97  CD        -0.8520   -8.3470   13.7480 C.3    81  PRO81       0.0939
     98  N         -2.5230   -7.7880   16.9380 N.am   82  VAL82      -0.2031
     99  CA        -2.9300   -7.0640   18.1540 C.3    82  VAL82       0.1282
    100  C         -3.7270   -5.7690   17.8300 C.3    82  VAL82       0.2035
    101  O         -3.3450   -5.1970   16.8100 O.3    82  VAL82      -0.2185
    102  CB        -1.7390   -6.5230   18.9870 C.3    82  VAL82       0.0226
    103  CG1       -1.4850   -7.2240   20.3090 C.3    82  VAL82       0.0018
    104  CG2       -0.4220   -6.2790   18.2180 C.3    82  VAL82       0.0018
    105  N         -4.0650   -1.8690   17.8610 N.3    84  ILE84      -0.1245
    106  CA        -3.0340   -0.9040   18.2660 C.3    84  ILE84       0.1561
    107  C         -3.6030    0.5070   18.2960 C.2    84  ILE84       0.2260
    108  O         -4.3080    0.9760   17.4120 O.2    84  ILE84      -0.2867
    109  CB        -1.7170   -1.0740   17.4690 C.3    84  ILE84       0.0252
    110  CG1       -1.5290    0.0810   16.4850 C.3    84  ILE84       0.0019
    111  CG2       -1.2530   -2.4300   16.8270 C.3    84  ILE84       0.0019
    112  CD1       -0.7280   -0.4860   15.2140 C.3    84  ILE84       0.0001
@<TRIPOS>BOND
     1    60    61    1
     2    61    62    1
     3    61    64    1
     4    62    63    2
     5    62    68   am
     6    68    69    1
     7    69    70    1
     8    66    64    1
     9    64    65    1
    10    65    67    1
    11    70    72   am
    12    70    71    2
    13    75    74    2
    14    72    73    1
    15    79    78    1
    16    78    77    1
    17    74    73    1
    18    74    76   am
    19    77    76    1
    20    77    80    1
    21    52    50   ar
    22    44    42   ar
    23    80    82    1
    24    80    81    1
    25    50    51   ar
    26    50    49    1
    27    83    81    1
    28    49    46    1
    29    58    57    1
    30    84    85    1
    31    42    41    1
    32    42    43   ar
    33    41    38    1
    34    59    57    1
    35    57    54    1
    36    85    88    1
    37    85    86    1
    38    46    45    1
    39    46    47    1
    40    45    39   am
    41    38    39    1
    42    38    37    1
    43    88    90    1
    44    88    89    1
    45    39    40    2
    46    54    53    1
    47    54    55    1
    48    37    34   am
    49    97    91    1
    50    97    96    1
    51    86    87    2
    52    86    91   am
    53    47    48    2
    54    91    92    1
    55    55    56    2
    56    96    95    1
    57    31    30    2
    58    34    33    1
    59    34    35    2
    60   112   110    1
    61    33    36    1
    62    33    32    1
    63    95    92    1
    64    92    93    1
    65    30    32   am
    66    30    29    1
    67   110   109    1
    68    93    98   am
    69    93    94    2
    70   101   100    1
    71   111   109    1
    72    98    99    1
    73    29    28    1
    74   108   107    2
    75   109   106    1
    76   100    99    1
    77   105   106    1
    78    27    25   ar
    79    99   102    1
    80   104   102    1
    81   106   107    1
    82    25    26   ar
    83    25    24    1
    84   102   103    1
    85    23    22    2
    86    24    21    1
    87    22    21    1
    88    21    20    1
    89    19    17    1
    90    15    14    2
    91    11     9    1
    92    17    16    1
    93    17    18    1
    94    16    13    1
    95    12    13    1
    96    14    13    1
    97     9     8    2
    98     9    10    1
    99     8     7    1
   100     7     6    1
   101     6     5    1
   102     5     2    1
   103     2     3    1
   104     2     1    1
   105     3     4    2
