@<TRIPOS>MOLECULE
tmp/1odyB00.pdb
 113 106 0 0 0
SMALL
GASTEIGER

@<TRIPOS>ATOM
      1  N        -21.2680   19.2080   34.0900 N.3     8  ARG8       -0.1245
      2  CA       -20.6490   19.1050   32.7540 C.3     8  ARG8        0.1563
      3  C        -21.4690   19.7700   31.6550 C.2     8  ARG8        0.2260
      4  O        -22.7100   19.6230   31.6740 O.2     8  ARG8       -0.2867
      5  CB       -20.4590   17.6630   32.3320 C.3     8  ARG8        0.0307
      6  CG       -19.5260   16.9210   33.2690 C.3     8  ARG8        0.0489
      7  CD       -19.0860   15.6300   32.6140 C.3     8  ARG8        0.2205
      8  NE       -18.1590   14.8730   33.4540 N.pl3   8  ARG8       -0.0865
      9  CZ       -18.4880   14.1120   34.4930 C.cat   8  ARG8        0.5346
     10  NH1      -19.7320   13.9910   34.9700 N.pl3   8  ARG8        0.1354
     11  NH2      -17.5110   13.4300   35.0980 N.pl3   8  ARG8        0.1354
     12  N        -20.2250   16.7800   24.9390 N.3    23  LEU23      -0.1245
     13  CA       -19.6220   17.7620   25.8130 C.3    23  LEU23       0.1561
     14  C        -18.9920   18.9580   25.1520 C.2    23  LEU23       0.2260
     15  O        -18.1090   18.7150   24.2650 O.2    23  LEU23      -0.2867
     16  CB       -18.4040   16.9810   26.4070 C.3    23  LEU23       0.0270
     17  CG       -17.9220   17.1500   27.8360 C.3    23  LEU23       0.0019
     18  CD1      -16.3820   17.2090   27.8270 C.3    23  LEU23       0.0001
     19  CD2      -18.4550   18.3140   28.6250 C.3    23  LEU23       0.0001
     20  N        -16.2350   21.2380   24.7910 N.3    25  ASP25      -0.1239
     21  CA       -14.8990   21.1410   25.3760 C.3    25  ASP25       0.1674
     22  C        -13.9050   22.1150   24.8190 C.2    25  ASP25       0.2266
     23  O        -13.3520   21.8630   23.7470 O.2    25  ASP25      -0.2867
     24  CB       -14.5020   19.6800   25.1670 C.3    25  ASP25       0.1410
     25  CG       -13.1620   19.3920   25.8200 C.2    25  ASP25       0.3668
     26  OD1      -12.5130   20.2290   26.4530 O.co2  25  ASP25      -0.2456
     27  OD2      -12.6850   18.2960   25.6730 O.co2  25  ASP25      -0.2456
     28  N        -11.0400   22.6390   25.8110 N.3    27  GLY27      -0.1210
     29  CA        -9.7360   22.0100   25.9000 C.3    27  GLY27       0.1956
     30  C         -9.4740   21.0170   24.7900 C.2    27  GLY27       0.2612
     31  O         -8.3980   20.4290   24.7930 O.2    27  GLY27      -0.2717
     32  N        -10.3730   20.8220   23.8380 N.am   28  ALA28      -0.1965
     33  CA       -10.1750   19.9090   22.7220 C.3    28  ALA28       0.1728
     34  C        -10.0470   20.7090   21.4360 C.2    28  ALA28       0.2616
     35  O        -10.8240   21.5490   21.0410 O.2    28  ALA28      -0.2715
     36  CB       -11.3300   18.9260   22.6990 C.3    28  ALA28       0.0334
     37  N         -8.9220   20.5340   20.6980 N.am   29  ASP29      -0.1957
     38  CA        -8.7330   21.2410   19.4520 C.3    29  ASP29       0.1840
     39  C         -9.7660   20.7240   18.4300 C.2    29  ASP29       0.2622
     40  O        -10.2370   21.5400   17.6480 O.2    29  ASP29      -0.2715
     41  CB        -7.3570   20.8620   18.7820 C.3    29  ASP29       0.1450
     42  CG        -6.1880   21.1890   19.6940 C.2    29  ASP29       0.3671
     43  OD1       -6.3020   22.2000   20.3890 O.co2  29  ASP29      -0.2456
     44  OD2       -5.1190   20.5590   19.7180 O.co2  29  ASP29      -0.2456
     45  N        -10.0110   19.4310   18.5140 N.am   30  ASP30      -0.1971
     46  CA       -10.8840   18.7040   17.5840 C.3    30  ASP30       0.1709
     47  C        -12.0930   18.0380   18.1900 C.2    30  ASP30       0.2293
     48  O        -12.1770   17.8810   19.4100 O.2    30  ASP30      -0.2864
     49  CB       -10.0790   17.5520   16.9940 C.3    30  ASP30       0.1436
     50  CG        -8.7990   17.9290   16.2730 C.2    30  ASP30       0.3671
     51  OD1       -8.7480   18.8780   15.4570 O.co2  30  ASP30      -0.2456
     52  OD2       -7.8460   17.1640   16.5380 O.co2  30  ASP30      -0.2456
     53  N        -14.3540   14.8220   18.6640 N.3    32  VAL32      -0.1245
     54  CA       -14.2150   13.3800   18.6500 C.3    32  VAL32       0.1561
     55  C        -15.4410   12.7570   19.2840 C.2    32  VAL32       0.2260
     56  O        -15.8840   13.0060   20.4010 O.2    32  VAL32      -0.2867
     57  CB       -12.9470   12.8150   19.3230 C.3    32  VAL32       0.0252
     58  CG1      -13.0780   13.0780   20.8290 C.3    32  VAL32       0.0019
     59  CG2      -12.7680   11.3140   19.1600 C.3    32  VAL32       0.0019
     60  N         -4.3940   10.7910   14.3650 N.3    46  MET46      -0.1230
     61  CA        -4.2320   10.3640   15.7580 C.3    46  MET46       0.1702
     62  C         -4.1770   11.6660   16.5760 C.2    46  MET46       0.2592
     63  O         -3.5410   12.6790   16.2380 O.2    46  MET46      -0.2718
     64  CB        -2.9900    9.5530   16.0210 C.3    46  MET46       0.0401
     65  CG        -1.8320   10.5410   15.9540 C.3    46  MET46       0.0596
     66  SD        -0.2800    9.5990   15.7980 S.3    46  MET46      -0.1393
     67  CE         0.7960   10.6570   16.7980 C.3    46  MET46       0.0692
     68  N         -4.8790   11.5720   17.6720 N.am   47  ILE47      -0.1966
     69  CA        -4.9440   12.7000   18.5960 C.3    47  ILE47       0.1727
     70  C         -4.4060   12.2860   19.9650 C.2    47  ILE47       0.2617
     71  O         -4.4960   11.1320   20.3590 O.2    47  ILE47      -0.2715
     72  CB        -6.3790   13.2090   18.8880 C.3    47  ILE47       0.0290
     73  CG1       -7.2760   11.9940   18.9180 C.3    47  ILE47       0.0022
     74  CG2       -6.8370   14.2590   17.9030 C.3    47  ILE47       0.0023
     75  CD1       -8.5520   12.1560   19.6940 C.3    47  ILE47       0.0001
     76  N         -3.9440   13.3440   20.6570 N.am   48  GLY48      -0.1940
     77  CA        -3.4030   13.1790   21.9860 C.3    48  GLY48       0.2014
     78  C         -4.3310   13.6740   23.1030 C.2    48  GLY48       0.2639
     79  O         -4.9530   14.7340   23.0200 O.2    48  GLY48      -0.2714
     80  N         -4.3810   12.8530   24.1410 N.am   49  GLY49      -0.1939
     81  CA        -5.1880   13.1220   25.2990 C.3    49  GLY49       0.2014
     82  C         -4.2870   13.0780   26.5360 C.2    49  GLY49       0.2635
     83  O         -3.0900   13.1690   26.4340 O.2    49  GLY49      -0.2714
     84  N         -4.9480   12.9610   27.6600 N.am   50  ILE50      -0.2030
     85  CA        -4.3150   12.8940   28.9550 C.3    50  ILE50       0.1282
     86  C         -3.7410   11.4850   29.0280 C.3    50  ILE50       0.2035
     87  O         -2.5210   11.4650   29.2750 O.3    50  ILE50      -0.2185
     88  CB        -5.2050   13.2320   30.1580 C.3    50  ILE50       0.0226
     89  CG1       -4.4530   14.2650   31.0260 C.3    50  ILE50       0.0018
     90  CG2       -5.5370   12.0890   31.0750 C.3    50  ILE50       0.0018
     91  CD1       -4.2580   15.5950   30.2960 C.3    50  ILE50       0.0001
     92  N        -14.4580    8.1910   25.5620 N.3    81  PRO81      -0.2102
     93  CA       -15.4610    7.7490   26.5350 C.3    81  PRO81       0.1504
     94  C        -16.7320    8.5780   26.5110 C.2    81  PRO81       0.2575
     95  O        -17.7600    8.1740   27.0120 O.2    81  PRO81      -0.2718
     96  CB       -14.7310    7.9470   27.8750 C.3    81  PRO81       0.0282
     97  CG       -13.6760    8.9600   27.6290 C.3    81  PRO81       0.0208
     98  CD       -13.4440    9.0890   26.1490 C.3    81  PRO81       0.0893
     99  N        -16.6410    9.7910   25.9640 N.am   82  VAL82      -0.1980
    100  CA       -17.6970   10.7660   25.8610 C.3    82  VAL82       0.1595
    101  C        -17.5850   11.4460   24.4740 C.2    82  VAL82       0.2287
    102  O        -16.4640   11.6530   24.0190 O.2    82  VAL82      -0.2864
    103  CB       -17.5690   12.0370   26.7330 C.3    82  VAL82       0.0276
    104  CG1      -18.9420   12.4930   27.2250 C.3    82  VAL82       0.0022
    105  CG2      -16.6320   11.9640   27.9200 C.3    82  VAL82       0.0022
    106  N        -17.2410   14.5320   22.2500 N.3    84  ILE84      -0.1245
    107  CA       -16.6920   15.8400   22.5530 C.3    84  ILE84       0.1561
    108  C        -16.7680   16.8340   21.4270 C.2    84  ILE84       0.2260
    109  O        -16.3220   16.4910   20.3500 O.2    84  ILE84      -0.2867
    110  CB       -15.1790   15.6200   22.8460 C.3    84  ILE84       0.0252
    111  CG1      -15.0910   15.1950   24.3080 C.3    84  ILE84       0.0019
    112  CG2      -14.2750   16.7800   22.7410 C.3    84  ILE84       0.0019
    113  CD1      -14.0360   14.1070   24.4680 C.3    84  ILE84       0.0001
@<TRIPOS>BOND
     1    60    61    1
     2    51    50   ar
     3    61    64    1
     4    61    62    1
     5    66    65    1
     6    66    67    1
     7    65    64    1
     8    63    62    2
     9    50    52   ar
    10    50    49    1
    11    62    68   am
    12    49    46    1
    13    46    47    1
    14    46    45    1
    15    40    39    2
    16    68    69    1
    17    74    72    1
    18    47    48    2
    19    39    45   am
    20    39    38    1
    21    69    72    1
    22    69    70    1
    23    54    53    1
    24    54    55    1
    25    54    57    1
    26    41    38    1
    27    41    42    1
    28    72    73    1
    29    73    75    1
    30    59    57    1
    31    55    56    2
    32    57    58    1
    33    38    37    1
    34    42    44   ar
    35    42    43   ar
    36    70    71    2
    37    70    76   am
    38   109   108    2
    39    76    77    1
    40    37    34   am
    41    35    34    2
    42   108   107    1
    43    34    33    1
    44    77    78    1
    45   106   107    1
    46   107   110    1
    47    36    33    1
    48    33    32    1
    49   112   110    1
    50   110   111    1
    51    79    78    2
    52    78    80   am
    53    23    22    2
    54    32    30   am
    55   102   101    2
    56    80    81    1
    57    15    14    2
    58   111   113    1
    59   101   100    1
    60    30    31    2
    61    30    29    1
    62    20    21    1
    63    22    21    1
    64    12    13    1
    65    14    13    1
    66    24    21    1
    67    24    25    1
    68    81    82    1
    69    92    98    1
    70    92    93    1
    71    27    25   ar
    72    28    29    1
    73    13    16    1
    74    25    26   ar
    75   100    99    1
    76   100   103    1
    77    99    94   am
    78    98    97    1
    79    16    17    1
    80    83    82    2
    81    94    93    1
    82    94    95    2
    83    93    96    1
    84    82    84   am
    85   103   104    1
    86   103   105    1
    87    97    96    1
    88    84    85    1
    89    18    17    1
    90    17    19    1
    91    85    86    1
    92    85    88    1
    93    86    87    1
    94    88    89    1
    95    88    90    1
    96    91    89    1
    97     3     4    2
    98     3     2    1
    99     5     2    1
   100     5     6    1
   101     7     6    1
   102     7     8    1
   103     2     1    1
   104     8     9    2
   105     9    10    1
   106     9    11    1
