@<TRIPOS>MOLECULE
tmp/1odzB00.pdb
 199 196 0 0 0
SMALL
GASTEIGER

@<TRIPOS>ATOM
      1  N         50.4070   27.3730   30.5320 N.3    38  HIS38      -0.1241
      2  CA        49.6070   26.3750   31.2300 C.3    38  HIS38       0.1621
      3  C         50.4740   25.4370   32.0780 C.2    38  HIS38       0.2264
      4  O         50.2350   24.2340   32.1650 O.2    38  HIS38      -0.2867
      5  CB        48.7710   25.6220   30.1870 C.3    38  HIS38       0.0745
      6  CG        47.4440   26.2480   29.9270 C.ar   38  HIS38       0.0817
      7  ND1       47.1200   26.9160   28.7600 N.ar   38  HIS38      -0.2268
      8  CD2       46.3590   26.3340   30.7220 C.ar   38  HIS38       0.1154
      9  CE1       45.8770   27.3690   28.8570 C.ar   38  HIS38       0.1986
     10  NE2       45.4010   27.0270   30.0430 N.ar   38  HIS38      -0.2212
     11  N         46.2270   32.9330   29.7260 N.3    70  ASP70      -0.1239
     12  CA        45.6310   33.6700   28.6140 C.3    70  ASP70       0.1674
     13  C         44.2870   34.2270   28.9800 C.2    70  ASP70       0.2266
     14  O         43.6060   33.7280   29.8870 O.2    70  ASP70      -0.2867
     15  CB        45.5150   32.7680   27.3940 C.3    70  ASP70       0.1410
     16  CG        45.3990   33.5550   26.1250 C.2    70  ASP70       0.3668
     17  OD1       44.2620   33.8880   25.7230 O.co2  70  ASP70      -0.2456
     18  OD2       46.4240   33.8650   25.4780 O.co2  70  ASP70      -0.2456
     19  N         41.8210   33.6990   27.3890 N.3    72  LEU72      -0.1245
     20  CA        40.9020   32.5590   27.2000 C.3    72  LEU72       0.1561
     21  C         40.5090   31.9070   28.5300 C.2    72  LEU72       0.2260
     22  O         39.5950   31.0730   28.5400 O.2    72  LEU72      -0.2867
     23  CB        41.4880   31.5390   26.2440 C.3    72  LEU72       0.0270
     24  CG        41.6190   31.9900   24.7880 C.3    72  LEU72       0.0019
     25  CD1       42.5440   31.0230   24.0230 C.3    72  LEU72       0.0001
     26  CD2       40.2460   32.0980   24.1580 C.3    72  LEU72       0.0001
     27  N         39.4590   28.1300   28.2330 N.3    80  GLU80      -0.1245
     28  CA        40.6150   27.4740   28.8500 C.3    80  GLU80       0.1567
     29  C         40.5010   27.3240   30.3680 C.2    80  GLU80       0.2260
     30  O         41.4260   26.8710   30.9980 O.2    80  GLU80      -0.2867
     31  CB        41.9200   28.1840   28.4470 C.3    80  GLU80       0.0388
     32  CG        42.2320   27.9910   26.9760 C.3    80  GLU80       0.1160
     33  CD        43.6190   28.4460   26.5510 C.2    80  GLU80       0.3649
     34  OE1       44.3160   29.1670   27.3220 O.co2  80  GLU80      -0.2457
     35  OE2       43.9990   28.0960   25.4270 O.co2  80  GLU80      -0.2457
     36  N         44.4480   35.9860   23.5770 N.3   102  HIS102     -0.1241
     37  CA        43.7610   35.4260   22.4140 C.3   102  HIS102      0.1621
     38  C         42.2760   35.8200   22.4330 C.2   102  HIS102      0.2264
     39  O         41.3840   34.9910   22.6060 O.2   102  HIS102     -0.2867
     40  CB        43.9760   33.9200   22.3040 C.3   102  HIS102      0.0745
     41  CG        45.3800   33.5140   21.9510 C.ar  102  HIS102      0.0817
     42  ND1       46.3750   33.3610   22.8840 N.ar  102  HIS102     -0.2268
     43  CD2       45.9440   33.2150   20.7550 C.ar  102  HIS102      0.1154
     44  CE1       47.4840   32.9480   22.2830 C.ar  102  HIS102      0.1986
     45  NE2       47.2490   32.8550   20.9820 N.ar  102  HIS102     -0.2212
     46  N         41.4220   33.6450   15.5310 N.3   121  TRP121     -0.1241
     47  CA        41.8470   33.1090   14.2350 C.3   121  TRP121      0.1605
     48  C         40.8810   33.4560   13.0990 C.2   121  TRP121      0.2264
     49  O         41.1330   33.0820   11.9410 O.2   121  TRP121     -0.2867
     50  CB        42.0600   31.5870   14.3560 C.3   121  TRP121      0.0550
     51  CG        43.1710   31.2660   15.2830 C.ar  121  TRP121      0.0003
     52  CD1       44.4650   31.1250   14.9560 C.ar  121  TRP121      0.0946
     53  CD2       43.0860   31.1080   16.7110 C.ar  121  TRP121      0.0152
     54  NE1       45.2130   30.8740   16.0730 N.ar  121  TRP121     -0.2442
     55  CE2       44.3900   30.8710   17.1740 C.ar  121  TRP121      0.0810
     56  CE3       42.0420   31.1320   17.6420 C.ar  121  TRP121      0.0012
     57  CZ2       44.6730   30.6600   18.5190 C.ar  121  TRP121      0.0191
     58  CZ3       42.3290   30.9560   18.9910 C.ar  121  TRP121      0.0001
     59  CH2       43.6420   30.7410   19.4100 C.ar  121  TRP121      0.0015
     60  N         50.2600   40.7150   28.1440 N.3   167  ARG167     -0.1245
     61  CA        50.7790   40.7880   26.7910 C.3   167  ARG167      0.1563
     62  C         49.6340   40.9470   25.7880 C.2   167  ARG167      0.2260
     63  O         48.7480   40.0900   25.7170 O.2   167  ARG167     -0.2867
     64  CB        51.5780   39.5230   26.5050 C.3   167  ARG167      0.0307
     65  CG        52.3050   39.5080   25.1960 C.3   167  ARG167      0.0489
     66  CD        53.4340   38.5150   25.1670 C.3   167  ARG167      0.2205
     67  NE        53.0000   37.1240   25.2930 N.pl3 167  ARG167     -0.0865
     68  CZ        52.9290   36.2500   24.3030 C.cat 167  ARG167      0.5346
     69  NH1       53.2230   36.5950   23.0600 N.pl3 167  ARG167      0.1354
     70  NH2       52.5660   35.0070   24.5660 N.pl3 167  ARG167      0.1354
     71  N         49.4890   40.0120   20.2380 N.3   170  HIS170     -0.1226
     72  CA        50.7830   39.4250   19.8570 C.3   170  HIS170      0.1752
     73  C         50.8220   38.9660   18.3950 C.2   170  HIS170      0.2595
     74  O         49.7840   38.7680   17.7540 O.2   170  HIS170     -0.2718
     75  CB        51.1110   38.2410   20.7710 C.3   170  HIS170      0.0759
     76  CG        50.0670   37.1690   20.7790 C.ar  170  HIS170      0.0818
     77  ND1       48.7510   37.3980   21.1390 N.ar  170  HIS170     -0.2268
     78  CD2       50.1510   35.8510   20.4610 C.ar  170  HIS170      0.1154
     79  CE1       48.0760   36.2640   21.0280 C.ar  170  HIS170      0.1986
     80  NE2       48.9000   35.3120   20.6280 N.ar  170  HIS170     -0.2212
     81  N         52.0330   38.7660   17.8920 N.am  171  GLU171     -0.1979
     82  CA        52.2360   38.1770   16.5660 C.3   171  GLU171      0.1602
     83  C         51.5380   39.0420   15.5060 C.2   171  GLU171      0.2287
     84  O         51.0520   38.5460   14.4760 O.2   171  GLU171     -0.2864
     85  CB        51.7720   36.6980   16.5620 C.3   171  GLU171      0.0415
     86  CG        52.6020   35.8830   17.5250 C.3   171  GLU171      0.1163
     87  CD        52.2030   34.4360   17.7110 C.2   171  GLU171      0.3649
     88  OE1       51.4270   33.9240   16.8910 O.co2 171  GLU171     -0.2457
     89  OE2       52.7530   33.8120   18.6570 O.co2 171  GLU171     -0.2457
     90  N         47.4310   36.0980   10.8420 N.3   176  TRP176     -0.1227
     91  CA        46.5560   35.0240   11.3120 C.3   176  TRP176      0.1737
     92  C         45.5740   35.4630   12.4100 C.2   176  TRP176      0.2595
     93  O         44.5740   34.7870   12.6660 O.2   176  TRP176     -0.2718
     94  CB        47.3540   33.8170   11.7850 C.3   176  TRP176      0.0564
     95  CG        48.5500   34.0970   12.6530 C.ar  176  TRP176      0.0003
     96  CD1       48.5960   34.1370   14.0180 C.ar  176  TRP176      0.0946
     97  CD2       49.9020   34.2820   12.2090 C.ar  176  TRP176      0.0152
     98  NE1       49.8850   34.3340   14.4390 N.ar  176  TRP176     -0.2442
     99  CE2       50.7040   34.4460   13.3480 C.ar  176  TRP176      0.0810
    100  CE3       50.5170   34.3480   10.9480 C.ar  176  TRP176      0.0012
    101  CZ2       52.0770   34.6360   13.2650 C.ar  176  TRP176      0.0191
    102  CZ3       51.8720   34.5460   10.8710 C.ar  176  TRP176      0.0001
    103  CH2       52.6310   34.7030   12.0200 C.ar  176  TRP176      0.0015
    104  N         45.8250   36.6160   13.0120 N.am  177  PHE177     -0.1976
    105  CA        44.9020   37.1440   14.0120 C.3   177  PHE177      0.1639
    106  C         44.2140   38.4080   13.4710 C.2   177  PHE177      0.2290
    107  O         44.7470   39.0940   12.5950 O.2   177  PHE177     -0.2864
    108  CB        45.6250   37.4870   15.3260 C.3   177  PHE177      0.0560
    109  CG        46.2610   36.3170   16.0360 C.ar  177  PHE177     -0.0200
    110  CD1       47.5550   36.4350   16.5770 C.ar  177  PHE177     -0.0042
    111  CD2       45.5870   35.1200   16.2020 C.ar  177  PHE177     -0.0042
    112  CE1       48.1550   35.3830   17.2940 C.ar  177  PHE177     -0.0003
    113  CE2       46.1920   34.0660   16.8970 C.ar  177  PHE177     -0.0003
    114  CZ        47.4770   34.2010   17.4570 C.ar  177  PHE177     -0.0000
    115  N         57.7930   36.6460   19.4110 N.3   242  ASP242     -0.1239
    116  CA        57.4750   35.2370   19.3250 C.3   242  ASP242      0.1674
    117  C         58.1480   34.6790   18.0760 C.2   242  ASP242      0.2266
    118  O         58.2320   35.3600   17.0680 O.2   242  ASP242     -0.2867
    119  CB        55.9650   35.0330   19.1860 C.3   242  ASP242      0.1410
    120  CG        55.2010   35.2980   20.4360 C.2   242  ASP242      0.3668
    121  OD1       53.9500   35.0730   20.4130 O.co2 242  ASP242     -0.2456
    122  OD2       55.7370   35.7480   21.4590 O.co2 242  ASP242     -0.2456
    123  N         58.6100   30.7230   15.9220 N.3   244  TYR244     -0.1241
    124  CA        58.3910   29.2960   15.7910 C.3   244  TYR244      0.1605
    125  C         59.1270   28.8180   14.5490 C.2   244  TYR244      0.2264
    126  O         59.0300   29.4520   13.4880 O.2   244  TYR244     -0.2867
    127  CB        56.8790   29.0060   15.7140 C.3   244  TYR244      0.0534
    128  CG        56.3140   29.1110   17.0990 C.ar  244  TYR244     -0.0201
    129  CD1       55.9560   30.3510   17.6390 C.ar  244  TYR244     -0.0009
    130  CD2       56.1980   28.0000   17.9000 C.ar  244  TYR244     -0.0009
    131  CE1       55.5260   30.4440   18.9600 C.ar  244  TYR244      0.0417
    132  CE2       55.7530   28.0790   19.2110 C.ar  244  TYR244      0.0417
    133  CZ        55.4190   29.3050   19.7340 C.ar  244  TYR244      0.1957
    134  OH        54.9930   29.3690   21.0420 O.3   244  TYR244     -0.2866
    135  N         57.3340   33.8880   23.3440 N.3   279  GLY279     -0.1225
    136  CA        56.8220   32.6050   22.8850 C.3   279  GLY279      0.1811
    137  C         57.7780   32.0410   21.8550 C.2   279  GLY279      0.2280
    138  O         58.0440   32.6800   20.8520 O.2   279  GLY279     -0.2866
    139  N         54.2250   24.1130   15.6010 N.3   284  ALA284     -0.1245
    140  CA        53.2480   23.0910   15.9350 C.3   284  ALA284      0.1562
    141  C         53.0740   21.9890   14.8780 C.2   284  ALA284      0.2260
    142  O         52.9230   20.8570   15.2730 O.2   284  ALA284     -0.2867
    143  CB        51.8840   23.7270   16.2380 C.3   284  ALA284      0.0290
    144  N         55.2490   26.9200   24.8040 N.3   319  TRP319     -0.1227
    145  CA        53.8030   26.7960   24.8360 C.3   319  TRP319      0.1737
    146  C         53.3140   25.5200   25.5540 C.2   319  TRP319      0.2595
    147  O         54.0950   24.7260   26.1170 O.2   319  TRP319     -0.2718
    148  CB        53.2310   26.9490   23.4170 C.3   319  TRP319      0.0564
    149  CG        51.8510   27.5440   23.3840 C.ar  319  TRP319      0.0003
    150  CD1       50.6900   26.9410   22.9560 C.ar  319  TRP319      0.0946
    151  CD2       51.4670   28.8610   23.8400 C.ar  319  TRP319      0.0152
    152  NE1       49.6340   27.8090   23.1120 N.ar  319  TRP319     -0.2442
    153  CE2       50.0850   28.9930   23.6390 C.ar  319  TRP319      0.0810
    154  CE3       52.1700   29.9500   24.3630 C.ar  319  TRP319      0.0012
    155  CZ2       49.3870   30.1670   23.9660 C.ar  319  TRP319      0.0191
    156  CZ3       51.4780   31.1140   24.6780 C.ar  319  TRP319      0.0001
    157  CH2       50.1140   31.2120   24.4900 C.ar  319  TRP319      0.0015
    158  N         51.9980   25.4060   25.6260 N.am  320  ARG320     -0.1980
    159  CA        51.3320   24.4510   26.4960 C.3   320  ARG320      0.1597
    160  C         51.5790   22.9930   26.1370 C.2   320  ARG320      0.2287
    161  O         51.8000   22.6500   24.9870 O.2   320  ARG320     -0.2864
    162  CB        49.8360   24.7430   26.4910 C.3   320  ARG320      0.0334
    163  CG        49.1170   24.3670   25.1980 C.3   320  ARG320      0.0492
    164  CD        47.7760   25.0430   25.0620 C.3   320  ARG320      0.2205
    165  NE        47.0820   24.6290   23.8650 N.pl3 320  ARG320     -0.0865
    166  CZ        46.2890   23.5610   23.7830 C.cat 320  ARG320      0.5346
    167  NH1       46.0990   22.7880   24.8400 N.pl3 320  ARG320      0.1354
    168  NH2       45.7070   23.2650   22.6260 N.pl3 320  ARG320      0.1354
    169  N         46.0060   17.7110   20.0940 N.3   326  VAL326     -0.1245
    170  CA        44.9220   18.3870   19.3730 C.3   326  VAL326      0.1561
    171  C         44.3160   17.4180   18.3520 C.2   326  VAL326      0.2260
    172  O         44.9650   16.4580   17.9570 O.2   326  VAL326     -0.2867
    173  CB        45.4170   19.6550   18.6250 C.3   326  VAL326      0.0252
    174  CG1       45.9470   20.6890   19.6150 C.3   326  VAL326      0.0019
    175  CG2       46.4900   19.3280   17.6000 C.3   326  VAL326      0.0019
    176  N         50.8920   17.8560   20.7700 N.3   334  HIS334     -0.1241
    177  CA        50.9020   19.3250   20.7580 C.3   334  HIS334      0.1621
    178  C         51.4060   19.7620   22.1300 C.2   334  HIS334      0.2264
    179  O         50.6230   19.9880   23.0560 O.2   334  HIS334     -0.2867
    180  CB        49.4960   19.8440   20.4880 C.3   334  HIS334      0.0745
    181  CG        49.4010   21.3330   20.3060 C.ar  334  HIS334      0.0817
    182  ND1       49.3790   21.9190   19.0650 N.ar  334  HIS334     -0.2268
    183  CD2       49.2180   22.3360   21.2020 C.ar  334  HIS334      0.1154
    184  CE1       49.2030   23.2280   19.1990 C.ar  334  HIS334      0.1986
    185  NE2       49.1310   23.5090   20.4880 N.ar  334  HIS334     -0.2212
    186  N         55.3810   21.2500   24.2130 N.3   336  TRP336     -0.1241
    187  CA        56.7330   21.7880   24.0530 C.3   336  TRP336      0.1605
    188  C         57.7250   21.4100   25.1400 C.2   336  TRP336      0.2264
    189  O         58.9160   21.3980   24.8410 O.2   336  TRP336     -0.2867
    190  CB        56.6470   23.3140   23.9010 C.3   336  TRP336      0.0550
    191  CG        56.2360   23.6740   22.4980 C.ar  336  TRP336      0.0003
    192  CD1       57.0570   23.9670   21.4750 C.ar  336  TRP336      0.0946
    193  CD2       54.9080   23.6980   21.9640 C.ar  336  TRP336      0.0152
    194  NE1       56.3440   24.1860   20.3270 N.ar  336  TRP336     -0.2442
    195  CE2       55.0110   24.0270   20.6020 C.ar  336  TRP336      0.0810
    196  CE3       53.6340   23.4750   22.5080 C.ar  336  TRP336      0.0012
    197  CZ2       53.8950   24.1560   19.7760 C.ar  336  TRP336      0.0191
    198  CZ3       52.5210   23.5870   21.6840 C.ar  336  TRP336      0.0001
    199  CH2       52.6640   23.9160   20.3260 C.ar  336  TRP336      0.0015
@<TRIPOS>BOND
     1    90    91    1
     2   102   100   ar
     3   102   103   ar
     4   100    97   ar
     5    91    94    1
     6    91    92    1
     7    94    95    1
     8    49    48    2
     9   103   101   ar
    10    97    95   ar
    11    97    99   ar
    12    92    93    2
    13    92   104   am
    14   107   106    2
    15    95    96   ar
    16   104   105    1
    17    48    47    1
    18   101    99   ar
    19    99    98   ar
    20   106   105    1
    21   126   125    2
    22   105   108    1
    23    96    98   ar
    24    47    50    1
    25    47    46    1
    26    50    51    1
    27    84    83    2
    28   125   124    1
    29   141   142    2
    30   141   140    1
    31    52    51   ar
    32    52    54   ar
    33    51    53   ar
    34   108   109    1
    35    83    82    1
    36   139   140    1
    37   127   124    1
    38   127   128    1
    39   124   123    1
    40   140   143    1
    41   109   111   ar
    42   109   110   ar
    43    54    55   ar
    44   111   113   ar
    45    85    82    1
    46    85    86    1
    47    82    81    1
    48   110   112   ar
    49    53    55   ar
    50    53    56   ar
    51    88    87   ar
    52   113   114   ar
    53   118   117    2
    54   128   129   ar
    55   128   130   ar
    56    55    57   ar
    57   112   114   ar
    58    86    87    1
    59   175   173    1
    60   129   131   ar
    61    56    58   ar
    62    87    89   ar
    63    74    73    2
    64    81    73   am
    65   130   132   ar
    66   172   171    2
    67   117   116    1
    68   171   170    1
    69    73    72    1
    70    57    59   ar
    71   173   170    1
    72   173   174    1
    73   131   133   ar
    74    58    59   ar
    75   182   184   ar
    76   182   181   ar
    77   119   116    1
    78   119   120    1
    79   184   185   ar
    80   132   133   ar
    81   116   115    1
    82   170   169    1
    83   133   134    1
    84   197   199   ar
    85   197   195   ar
    86    72    71    1
    87    72    75    1
    88   181   180    1
    89   181   183   ar
    90   199   198   ar
    91   194   195   ar
    92   194   192   ar
    93   121   120   ar
    94   120   122   ar
    95    78    80   ar
    96    78    76   ar
    97   180   177    1
    98   185   183   ar
    99   195   193   ar
   100    80    79   ar
   101    43    45   ar
   102    43    41   ar
   103   177   176    1
   104   177   178    1
   105    75    76    1
   106    76    77   ar
   107   138   137    2
   108    45    44   ar
   109    79    77   ar
   110   192   191   ar
   111   198   196   ar
   112   137   136    1
   113    41    40    1
   114    41    42   ar
   115   193   191   ar
   116   193   196   ar
   117   178   179    2
   118    44    42   ar
   119    40    37    1
   120    37    38    1
   121    37    36    1
   122    38    39    2
   123   191   190    1
   124   168   166    1
   125   136   135    1
   126   150   152   ar
   127   150   149   ar
   128    69    68    1
   129   152   153   ar
   130   149   148    1
   131   149   151   ar
   132   148   145    1
   133   153   151   ar
   134   153   155   ar
   135   166   165    2
   136   166   167    1
   137   151   154   ar
   138   165   164    1
   139   190   187    1
   140   155   157   ar
   141    25    24    1
   142   187   186    1
   143   187   188    1
   144    26    24    1
   145    68    70    1
   146    68    67    2
   147   154   156   ar
   148   157   156   ar
   149    24    23    1
   150   144   145    1
   151   145   146    1
   152   189   188    2
   153   161   160    2
   154   164   163    1
   155    66    65    1
   156    66    67    1
   157    65    64    1
   158   163   162    1
   159    35    33   ar
   160    18    16   ar
   161   146   158   am
   162   146   147    2
   163   158   159    1
   164    63    62    2
   165    17    16   ar
   166    62    61    1
   167    16    15    1
   168   160   159    1
   169    23    20    1
   170   162   159    1
   171    64    61    1
   172    33    32    1
   173    33    34   ar
   174    61    60    1
   175    32    31    1
   176    20    19    1
   177    20    21    1
   178    15    12    1
   179    27    28    1
   180    31    28    1
   181    21    22    2
   182    12    13    1
   183    12    11    1
   184     7     9   ar
   185     7     6   ar
   186    28    29    1
   187     9    10   ar
   188    13    14    2
   189     6     5    1
   190     6     8   ar
   191    10     8   ar
   192     5     2    1
   193    29    30    2
   194     1     2    1
   195     2     3    1
   196     3     4    2
