@<TRIPOS>MOLECULE
tmp/1oe5A00.pdb
 87 83 0 0 0
SMALL
GASTEIGER

@<TRIPOS>ATOM
      1  N          2.3890   27.7310   42.3420 N.3    58  GLY58      -0.1210
      2  CA         3.3320   26.6270   42.5350 C.3    58  GLY58       0.1956
      3  C          4.5070   26.7860   41.5570 C.2    58  GLY58       0.2612
      4  O          4.6120   27.7040   40.7380 O.2    58  GLY58      -0.2717
      5  N          5.3580   25.8000   41.5190 N.am   59  MET59      -0.1965
      6  CA         6.5220   25.8810   40.6370 C.3    59  MET59       0.1736
      7  C          6.2090   25.2590   39.3060 C.2    59  MET59       0.2616
      8  O          6.2430   25.9420   38.2900 O.2    59  MET59      -0.2715
      9  CB         7.6530   25.0920   41.2780 C.3    59  MET59       0.0427
     10  CG         8.9670   25.0930   40.4050 C.3    59  MET59       0.0599
     11  SD        10.3310   24.0330   41.3610 S.3    59  MET59      -0.1393
     12  CE         9.5730   22.6840   42.1000 C.3    59  MET59       0.0692
     13  N          5.9060   23.9610   39.2830 N.am   60  ASN60      -0.1959
     14  CA         5.5000   23.3110   38.0550 C.3    60  ASN60       0.1804
     15  C          4.7600   22.0230   38.3700 C.2    60  ASN60       0.2463
     16  O          4.6580   21.5710   39.5610 O.2    60  ASN60      -0.2730
     17  CB         6.7350   23.1520   37.0500 C.3    60  ASN60       0.1195
     18  CG         7.6350   21.9470   37.3740 C.2    60  ASN60       0.2630
     19  OD1        7.9830   21.7260   38.5400 O.2    60  ASN60      -0.2716
     20  ND2        8.0120   21.1430   36.3280 N.am   60  ASN60      -0.0877
     21  N          4.2100   21.3920   37.3040 N.am   61  PRO61      -0.2716
     22  CA         3.5460   20.0910   37.4760 C.3    61  PRO61       0.1536
     23  C          4.3910   18.9700   38.1100 C.2    61  PRO61       0.2599
     24  O          5.5900   18.8020   37.8010 O.2    61  PRO61      -0.2715
     25  CB         3.0950   19.7650   36.0380 C.3    61  PRO61       0.0310
     26  CG         2.8760   21.1790   35.4290 C.3    61  PRO61       0.0237
     27  CD         4.1640   21.8680   35.8880 C.3    61  PRO61       0.0939
     28  N          3.7970   18.2370   39.0530 N.am   62  GLY62      -0.1955
     29  CA         4.4160   16.9490   39.3800 C.3    62  GLY62       0.1869
     30  C          3.8220   15.8100   38.4480 C.2    62  GLY62       0.2309
     31  O          2.7580   15.9620   37.8040 O.2    62  GLY62      -0.2863
     32  N         -0.8690   17.4110   38.2980 N.3    66  MET66      -0.1245
     33  CA        -1.1140   18.2570   37.1430 C.3    66  MET66       0.1570
     34  C         -0.6680   17.6050   35.7970 C.2    66  MET66       0.2261
     35  O         -1.3400   17.7940   34.8310 O.2    66  MET66      -0.2867
     36  CB        -0.4960   19.6770   37.3450 C.3    66  MET66       0.0387
     37  CG        -0.7710   20.4770   36.0090 C.3    66  MET66       0.0595
     38  SD        -0.6820   22.3150   36.2850 S.3    66  MET66      -0.1393
     39  CE        -1.0790   22.9310   34.6720 C.3    66  MET66       0.0692
     40  N         -1.4820   21.4600   41.2190 N.3    73  PHE73      -0.1227
     41  CA        -1.4690   20.5900   42.4080 C.3    73  PHE73       0.1736
     42  C         -2.5310   19.4640   42.2620 C.2    73  PHE73       0.2596
     43  O         -3.1000   19.0200   43.2610 O.2    73  PHE73      -0.2718
     44  CB        -1.7530   21.4530   43.6550 C.3    73  PHE73       0.0547
     45  CG        -0.5260   22.2840   44.1100 C.ar   73  PHE73      -0.0202
     46  CD1        0.5950   21.6320   44.7060 C.ar   73  PHE73      -0.0042
     47  CD2       -0.4300   23.6130   43.8090 C.ar   73  PHE73      -0.0042
     48  CE1        1.7460   22.3760   45.0150 C.ar   73  PHE73      -0.0003
     49  CE2        0.6890   24.3990   44.2060 C.ar   73  PHE73      -0.0003
     50  CZ         1.7670   23.7930   44.7860 C.ar   73  PHE73      -0.0000
     51  N         -2.7780   19.0320   41.0000 N.am   74  GLY74      -0.1957
     52  CA        -3.9620   18.3200   40.5720 C.3    74  GLY74       0.1869
     53  C         -3.9620   16.8110   40.8830 C.2    74  GLY74       0.2309
     54  O         -4.1260   15.9720   39.9740 O.2    74  GLY74      -0.2863
     55  N         -0.4710   12.1120   43.7860 N.3   110  GLU110     -0.1245
     56  CA         0.5950   13.1070   43.9360 C.3   110  GLU110      0.1567
     57  C          0.5520   13.5430   45.4420 C.2   110  GLU110      0.2260
     58  O         -0.4540   14.1110   45.9010 O.2   110  GLU110     -0.2867
     59  CB         0.4310   14.2640   42.8710 C.3   110  GLU110      0.0388
     60  CG         1.4630   15.4560   42.9170 C.3   110  GLU110      0.1160
     61  CD         2.8530   15.0530   42.3770 C.2   110  GLU110      0.3649
     62  OE1        3.0480   14.1240   41.5190 O.co2 110  GLU110     -0.2457
     63  OE2        3.8320   15.6710   42.8440 O.co2 110  GLU110     -0.2457
     64  N          2.1280   15.9870   47.1120 N.3   112  SER112     -0.1217
     65  CA         2.0140   17.4540   47.1720 C.3   112  SER112      0.1889
     66  C          0.6240   17.9660   46.9690 C.2   112  SER112      0.2288
     67  O          0.1520   18.8360   47.6660 O.2   112  SER112     -0.2866
     68  CB         2.9060   18.0340   46.0250 C.3   112  SER112      0.2089
     69  OG         4.2160   17.9830   46.5100 O.3   112  SER112     -0.2183
     70  N          0.4880   27.6730   38.4410 N.3   138  ASN138     -0.1240
     71  CA         1.9000   27.4210   38.4920 C.3   138  ASN138      0.1653
     72  C          2.7470   28.4270   37.6700 C.2   138  ASN138      0.2266
     73  O          2.3030   28.8380   36.6220 O.2   138  ASN138     -0.2867
     74  CB         2.2430   26.0200   37.9880 C.3   138  ASN138      0.1155
     75  CG         1.9570   24.9410   39.0210 C.2   138  ASN138      0.2627
     76  OD1        2.3430   25.0130   40.2010 O.2   138  ASN138     -0.2716
     77  ND2        1.3780   23.8570   38.5370 N.am  138  ASN138     -0.0877
     78  N          6.3660   24.5940   50.8650 N.3   214  HIS214     -0.1241
     79  CA         6.0150   23.5740   49.9420 C.3   214  HIS214      0.1621
     80  C          5.6340   22.2120   50.5690 C.2   214  HIS214      0.2264
     81  O          6.3060   21.7420   51.4420 O.2   214  HIS214     -0.2867
     82  CB         7.0840   23.4510   48.8800 C.3   214  HIS214      0.0745
     83  CG         6.5330   22.9420   47.5720 C.ar  214  HIS214      0.0817
     84  ND1        6.2760   21.6000   47.3520 N.ar  214  HIS214     -0.2268
     85  CD2        6.1630   23.5950   46.4440 C.ar  214  HIS214      0.1154
     86  CE1        5.8300   21.4590   46.1180 C.ar  214  HIS214      0.1986
     87  NE2        5.7810   22.6490   45.5370 N.ar  214  HIS214     -0.2212
@<TRIPOS>BOND
     1    39    38    1
     2    35    34    2
     3    26    27    1
     4    26    25    1
     5    34    33    1
     6    27    21    1
     7    37    38    1
     8    37    36    1
     9    25    22    1
    10    20    18   am
    11    73    72    2
    12    17    18    1
    13    17    14    1
    14    33    36    1
    15    33    32    1
    16    21    22    1
    17    21    15   am
    18    18    19    2
    19    22    23    1
    20    72    71    1
    21    24    23    2
    22    31    30    2
    23    74    71    1
    24    74    75    1
    25    14    15    1
    26    14    13    1
    27    23    28   am
    28     8     7    2
    29    15    16    2
    30    70    71    1
    31    30    29    1
    32    77    75   am
    33    75    76    2
    34    28    29    1
    35    13     7   am
    36     7     6    1
    37    54    53    2
    38    10     9    1
    39    10    11    1
    40    52    53    1
    41    52    51    1
    42     6     9    1
    43     6     5    1
    44     4     3    2
    45    51    42   am
    46    40    41    1
    47    11    12    1
    48     5     3   am
    49    62    61   ar
    50     3     2    1
    51    42    41    1
    52    42    43    2
    53     1     2    1
    54    61    63   ar
    55    61    60    1
    56    41    44    1
    57    59    60    1
    58    59    56    1
    59    44    45    1
    60    55    56    1
    61    47    45   ar
    62    47    49   ar
    63    56    57    1
    64    45    46   ar
    65    49    50   ar
    66    46    48   ar
    67    50    48   ar
    68    57    58    2
    69    87    86   ar
    70    87    85   ar
    71    68    69    1
    72    68    65    1
    73    86    84   ar
    74    85    83   ar
    75    66    65    1
    76    66    67    2
    77    64    65    1
    78    84    83   ar
    79    83    82    1
    80    82    79    1
    81    79    80    1
    82    79    78    1
    83    80    81    2
