@<TRIPOS>MOLECULE
tmp/1oe5B00.pdb
 92 91 0 0 0
SMALL
GASTEIGER

@<TRIPOS>ATOM
      1  N         29.3900   24.3590    7.5510 N.3    19  SER19      -0.1202
      2  CA        28.1530   23.6610    8.0430 C.3    19  SER19       0.2020
      3  C         28.3850   22.1880    8.3640 C.2    19  SER19       0.2618
      4  O         27.6280   21.5810    9.1220 O.2    19  SER19      -0.2717
      5  CB        26.9970   23.7610    7.0190 C.3    19  SER19       0.2103
      6  OG        27.4060   23.2500    5.7320 O.3    19  SER19      -0.2182
      7  N         29.4280   21.6240    7.7560 N.am   20  ASN20      -0.1974
      8  CA        29.8990   20.2560    8.0410 C.3    20  ASN20       0.1688
      9  C         30.7850   19.9660    9.2450 C.2    20  ASN20       0.2292
     10  O         31.2050   18.8210    9.3570 O.2    20  ASN20      -0.2864
     11  CB        30.6810   19.7200    6.8470 C.3    20  ASN20       0.1181
     12  CG        29.7820   19.3710    5.6790 C.2    20  ASN20       0.2629
     13  OD1       28.5430   19.2750    5.8330 O.2    20  ASN20      -0.2716
     14  ND2       30.3930   19.2090    4.4900 N.am   20  ASN20      -0.0877
     15  N         27.3130   27.6480   18.7400 N.3    30  VAL30      -0.1231
     16  CA        28.0390   28.1980   17.6500 C.3    30  VAL30       0.1692
     17  C         27.0250   28.9760   16.9130 C.2    30  VAL30       0.2592
     18  O         25.9700   28.4070   16.5320 O.2    30  VAL30      -0.2718
     19  CB        28.5460   27.0770   16.7040 C.3    30  VAL30       0.0266
     20  CG1       28.9170   27.6300   15.3030 C.3    30  VAL30       0.0020
     21  CG2       29.6390   26.1770   17.3870 C.3    30  VAL30       0.0020
     22  N         27.3660   30.2350   16.6020 N.am   31  TYR31      -0.1962
     23  CA        26.5070   31.0660   15.7290 C.3    31  TYR31       0.1771
     24  C         27.1930   31.4210   14.4500 C.2    31  TYR31       0.2619
     25  O         28.4040   31.5820   14.4440 O.2    31  TYR31      -0.2715
     26  CB        26.1650   32.4400   16.3970 C.3    31  TYR31       0.0574
     27  CG        25.4570   32.3650   17.7570 C.ar   31  TYR31      -0.0198
     28  CD1       24.8750   31.1720   18.2430 C.ar   31  TYR31      -0.0009
     29  CD2       25.3490   33.5330   18.5610 C.ar   31  TYR31      -0.0009
     30  CE1       24.2570   31.1510   19.5610 C.ar   31  TYR31       0.0417
     31  CE2       24.7370   33.5050   19.8310 C.ar   31  TYR31       0.0417
     32  CZ        24.1950   32.3210   20.3260 C.ar   31  TYR31       0.1957
     33  OH        23.6130   32.3600   21.5840 O.3    31  TYR31      -0.2866
     34  N         26.3870   31.6800   13.4200 N.am   32  ASN32      -0.1972
     35  CA        26.8660   32.1260   12.2010 C.3    32  ASN32       0.1688
     36  C         25.8980   33.1660   11.7020 C.2    32  ASN32       0.2292
     37  O         24.8740   32.8220   11.0700 O.2    32  ASN32      -0.2864
     38  CB        26.9160   30.9680   11.1980 C.3    32  ASN32       0.1181
     39  CG        27.4750   31.4260    9.8750 C.2    32  ASN32       0.2629
     40  OD1       27.6990   32.6280    9.6920 O.2    32  ASN32      -0.2716
     41  ND2       27.7570   30.5010    8.9770 N.am   32  ASN32      -0.0877
     42  N         24.1670   33.2500    8.3010 N.3    35  VAL35      -0.1231
     43  CA        22.8590   32.6100    8.0580 C.3    35  VAL35       0.1692
     44  C         21.7330   33.5350    8.5790 C.2    35  VAL35       0.2592
     45  O         20.9680   34.1160    7.7790 O.2    35  VAL35      -0.2718
     46  CB        22.8200   31.1890    8.7320 C.3    35  VAL35       0.0266
     47  CG1       21.4200   30.5160    8.6410 C.3    35  VAL35       0.0020
     48  CG2       23.9650   30.2700    8.1490 C.3    35  VAL35       0.0020
     49  N         21.6450   33.7540    9.9080 N.am   36  TYR36      -0.1976
     50  CA        20.4870   34.5060   10.3890 C.3    36  TYR36       0.1639
     51  C         20.5580   36.0340   10.2430 C.2    36  TYR36       0.2290
     52  O         19.5490   36.7230   10.5240 O.2    36  TYR36      -0.2864
     53  CB        20.2760   34.1350   11.8240 C.3    36  TYR36       0.0560
     54  CG        21.4020   34.5870   12.7160 C.ar   36  TYR36      -0.0198
     55  CD1       21.4470   35.9190   13.2060 C.ar   36  TYR36      -0.0009
     56  CD2       22.4330   33.7170   13.0640 C.ar   36  TYR36      -0.0009
     57  CE1       22.4700   36.3260   14.0600 C.ar   36  TYR36       0.0417
     58  CE2       23.4510   34.1110   13.8830 C.ar   36  TYR36       0.0417
     59  CZ        23.4750   35.4320   14.3890 C.ar   36  TYR36       0.1957
     60  OH        24.4900   35.8060   15.2580 O.3    36  TYR36      -0.2866
     61  N         17.1490   34.4880   14.4370 N.3    92  LYS92      -0.1231
     62  CA        17.8890   34.0180   15.5850 C.3    92  LYS92       0.1678
     63  C         18.6950   32.7270   15.2430 C.2    92  LYS92       0.2434
     64  O         18.3570   32.0230   14.3180 O.2    92  LYS92      -0.2733
     65  CB        16.9410   33.8750   16.7930 C.3    92  LYS92       0.0284
     66  CG        15.8760   32.8330   16.6220 C.3    92  LYS92       0.0035
     67  CD        14.4630   33.4720   16.1990 C.3    92  LYS92       0.0206
     68  CE        13.6850   32.7450   15.0300 C.3    92  LYS92       0.1093
     69  NZ        13.4220   31.2610   15.1530 N.3    92  LYS92      -0.1314
     70  N         19.7780   32.4230   15.9570 N.am   93  PRO93      -0.2718
     71  CA        20.4280   31.1100   15.7730 C.3    93  PRO93       0.1535
     72  C         19.4460   29.9970   16.2010 C.2    93  PRO93       0.2598
     73  O         18.5630   30.2650   17.0160 O.2    93  PRO93      -0.2715
     74  CB        21.6570   31.1650   16.7190 C.3    93  PRO93       0.0310
     75  CG        21.7870   32.7270   17.0790 C.3    93  PRO93       0.0237
     76  CD        20.4090   33.2480   17.0090 C.3    93  PRO93       0.0939
     77  N         19.5870   28.7970   15.6270 N.am   94  GLU94      -0.1964
     78  CA        18.8700   27.5950   16.1150 C.3    94  GLU94       0.1733
     79  C         18.8980   27.4670   17.6560 C.2    94  GLU94       0.2616
     80  O         17.8810   27.1750   18.2630 O.2    94  GLU94      -0.2715
     81  CB        19.5030   26.3230   15.4990 C.3    94  GLU94       0.0429
     82  CG        18.8360   25.8700   14.1860 C.3    94  GLU94       0.1163
     83  CD        19.6470   24.8010   13.3860 C.2    94  GLU94       0.3649
     84  OE1       20.1860   23.8180   13.9750 O.co2  94  GLU94      -0.2457
     85  OE2       19.7650   24.9560   12.1400 O.co2  94  GLU94      -0.2457
     86  N         20.0800   27.6010   18.2720 N.am   95  VAL95      -0.1977
     87  CA        20.1960   27.3940   19.7030 C.3    95  VAL95       0.1596
     88  C         20.9220   28.5710   20.2920 C.2    95  VAL95       0.2287
     89  O         22.0690   28.7730   19.9520 O.2    95  VAL95      -0.2864
     90  CB        20.9450   26.0830   20.0910 C.3    95  VAL95       0.0276
     91  CG1       20.7390   25.7750   21.6280 C.3    95  VAL95       0.0022
     92  CG2       20.5110   24.8810   19.1690 C.3    95  VAL95       0.0022
@<TRIPOS>BOND
     1    14    12   am
     2    12    13    2
     3    12    11    1
     4     6     5    1
     5    11     8    1
     6     5     2    1
     7     1     2    1
     8     7     8    1
     9     7     3   am
    10    45    44    2
    11     8     9    1
    12     2     3    1
    13    43    42    1
    14    43    44    1
    15    43    46    1
    16    48    46    1
    17     3     4    2
    18    44    49   am
    19    47    46    1
    20    41    39   am
    21     9    10    2
    22    40    39    2
    23    39    38    1
    24    49    50    1
    25    51    50    1
    26    51    52    2
    27    50    53    1
    28    37    36    2
    29    38    35    1
    30    36    35    1
    31    53    54    1
    32    85    83   ar
    33    35    34    1
    34    54    56   ar
    35    54    55   ar
    36    56    58   ar
    37    55    57   ar
    38    83    84   ar
    39    83    82    1
    40    34    24   am
    41    58    59   ar
    42    57    59   ar
    43    82    81    1
    44    64    63    2
    45    59    60    1
    46    61    62    1
    47    25    24    2
    48    24    23    1
    49    68    69    1
    50    68    67    1
    51    63    62    1
    52    63    70   am
    53    20    19    1
    54    81    78    1
    55    62    65    1
    56    77    78    1
    57    77    72   am
    58    23    26    1
    59    23    22    1
    60    71    70    1
    61    71    72    1
    62    71    74    1
    63    70    76    1
    64    78    79    1
    65    67    66    1
    66    72    73    2
    67    26    27    1
    68    18    17    2
    69    22    17   am
    70    66    65    1
    71    19    21    1
    72    19    16    1
    73    74    75    1
    74    17    16    1
    75    76    75    1
    76    16    15    1
    77    79    80    2
    78    79    86   am
    79    27    28   ar
    80    27    29   ar
    81    28    30   ar
    82    86    87    1
    83    29    31   ar
    84    92    90    1
    85    30    32   ar
    86    87    90    1
    87    87    88    1
    88    31    32   ar
    89    89    88    2
    90    90    91    1
    91    32    33    1
