@<TRIPOS>MOLECULE
tmp/1oe6A01.pdb
 89 87 0 0 0
SMALL
GASTEIGER

@<TRIPOS>ATOM
      1  N          4.7250   14.8290   38.2590 N.3    63  PRO63      -0.2102
      2  CA         4.5340   13.7660   37.3780 C.3    63  PRO63       0.1504
      3  C          3.1800   13.0500   37.6230 C.2    63  PRO63       0.2575
      4  O          2.6270   12.5230   36.6510 O.2    63  PRO63      -0.2718
      5  CB         5.7330   12.8390   37.7520 C.3    63  PRO63       0.0282
      6  CG         6.2100   13.1460   39.0760 C.3    63  PRO63       0.0208
      7  CD         5.8380   14.5900   39.2550 C.3    63  PRO63       0.0893
      8  N          2.6500   13.0780   38.8230 N.am   64  PHE64      -0.1977
      9  CA         1.3210   12.4980   39.0290 C.3    64  PHE64       0.1639
     10  C          0.1740   13.4360   39.4440 C.2    64  PHE64       0.2290
     11  O         -0.8220   12.9320   39.9830 O.2    64  PHE64      -0.2864
     12  CB         1.3540   11.4580   40.1960 C.3    64  PHE64       0.0560
     13  CG         2.4960   10.5720   40.1450 C.ar   64  PHE64      -0.0200
     14  CD1        2.6380    9.6530   39.1070 C.ar   64  PHE64      -0.0042
     15  CD2        3.4680   10.6410   41.0680 C.ar   64  PHE64      -0.0042
     16  CE1        3.6800    8.8400   39.0270 C.ar   64  PHE64      -0.0003
     17  CE2        4.5630    9.8170   40.9220 C.ar   64  PHE64      -0.0003
     18  CZ         4.6470    8.9540   39.9170 C.ar   64  PHE64      -0.0000
     19  N          6.6090    6.7230   32.8860 N.3    99  ARG99      -0.1245
     20  CA         5.8210    7.9280   33.1680 C.3    99  ARG99       0.1563
     21  C          4.8080    8.2200   32.0790 C.2    99  ARG99       0.2260
     22  O          4.7890    9.3550   31.4790 O.2    99  ARG99      -0.2867
     23  CB         6.7630    9.1550   33.1680 C.3    99  ARG99       0.0307
     24  CG         7.7120    9.2270   34.2780 C.3    99  ARG99       0.0489
     25  CD         6.9350    9.2460   35.5600 C.3    99  ARG99       0.2205
     26  NE         7.8360    9.1930   36.6610 N.pl3  99  ARG99      -0.0865
     27  CZ         7.8510    8.2570   37.5940 C.cat  99  ARG99       0.5346
     28  NH1        7.1130    7.1980   37.5470 N.pl3  99  ARG99       0.1354
     29  NH2        8.6060    8.4410   38.6310 N.pl3  99  ARG99       0.1354
     30  N         -1.0340    8.7150   43.7880 N.3   109  SER109     -0.1202
     31  CA        -1.4070    9.9850   44.3640 C.3   109  SER109      0.2020
     32  C         -0.2000   10.9660   44.6170 C.2   109  SER109      0.2619
     33  O          0.7860   10.5470   45.1200 O.2   109  SER109     -0.2717
     34  CB        -2.1770    9.6990   45.6250 C.3   109  SER109      0.2103
     35  OG        -2.3010   10.8420   46.5290 O.3   109  SER109     -0.2182
     36  N         -0.2190   12.2030   44.1120 N.am  110  GLU110     -0.1965
     37  CA         0.8260   13.1700   44.3400 C.3   110  GLU110      0.1733
     38  C          0.5490   13.6510   45.8620 C.2   110  GLU110      0.2616
     39  O         -0.4870   14.1590   46.2640 O.2   110  GLU110     -0.2715
     40  CB         0.6260   14.2570   43.2910 C.3   110  GLU110      0.0429
     41  CG         1.5540   15.4790   43.0170 C.3   110  GLU110      0.1163
     42  CD         2.9140   15.2120   42.2070 C.2   110  GLU110      0.3649
     43  OE1        3.3660   14.0960   41.4490 O.co2 110  GLU110     -0.2457
     44  OE2        3.6290   16.2850   42.3580 O.co2 110  GLU110     -0.2457
     45  N          1.5320   13.4660   46.7040 N.am  111  VAL111     -0.1963
     46  CA         1.5840   13.8990   48.0560 C.3   111  VAL111      0.1727
     47  C          1.4970   15.3880   48.1910 C.2   111  VAL111      0.2616
     48  O          0.5500   15.9040   48.8400 O.2   111  VAL111     -0.2715
     49  CB         2.8320   13.3470   48.6730 C.3   111  VAL111      0.0290
     50  CG1        3.0210   13.8510   49.9950 C.3   111  VAL111      0.0023
     51  CG2        2.6650   11.7840   48.7760 C.3   111  VAL111      0.0023
     52  N          2.2660   16.1110   47.4260 N.am  112  SER112     -0.1950
     53  CA         1.9800   17.5270   47.3970 C.3   112  SER112      0.1924
     54  C          0.6280   18.0150   47.1310 C.2   112  SER112      0.2314
     55  O          0.1570   18.9100   47.7910 O.2   112  SER112     -0.2863
     56  CB         2.8070   18.1830   46.3390 C.3   112  SER112      0.2116
     57  OG         4.0570   18.2430   46.9240 O.3   112  SER112     -0.2180
     58  N         12.2780   13.0640   37.6080 N.3   151  ASN151     -0.1240
     59  CA        11.8210   14.4230   37.3800 C.3   151  ASN151      0.1653
     60  C         12.8890   15.4300   37.5240 C.2   151  ASN151      0.2266
     61  O         13.5460   15.3950   38.4560 O.2   151  ASN151     -0.2867
     62  CB        10.7660   14.7890   38.4120 C.3   151  ASN151      0.1155
     63  CG         9.9670   16.1620   38.0430 C.2   151  ASN151      0.2627
     64  OD1        9.4550   16.3420   36.9260 O.2   151  ASN151     -0.2716
     65  ND2        9.9280   17.1030   39.0060 N.am  151  ASN151     -0.0877
     66  N          5.9960   19.3980   49.2230 N.3   216  SER216     -0.1203
     67  CA         6.5950   18.1660   48.7460 C.3   216  SER216      0.2005
     68  C          7.1590   17.3120   49.8820 C.2   216  SER216      0.2461
     69  O          7.7600   17.8220   50.8450 O.2   216  SER216     -0.2732
     70  CB         7.8130   18.6290   47.9740 C.3   216  SER216      0.2103
     71  OG         8.5650   17.5610   47.4570 O.3   216  SER216     -0.2182
     72  N          7.0430   16.0340   49.7560 N.am  217  PRO217     -0.2717
     73  CA         7.6060   15.1670   50.7560 C.3   217  PRO217      0.1535
     74  C          9.1910   15.0720   50.6330 C.2   217  PRO217      0.2598
     75  O          9.8340   14.4870   51.5340 O.2   217  PRO217     -0.2715
     76  CB         7.0110   13.8300   50.4340 C.3   217  PRO217      0.0310
     77  CG         6.8400   13.9390   48.7050 C.3   217  PRO217      0.0237
     78  CD         6.4460   15.3230   48.6050 C.3   217  PRO217      0.0939
     79  N          9.7640   15.6650   49.5800 N.am  218  ARG218     -0.1978
     80  CA        11.2050   15.8590   49.4410 C.3   218  ARG218      0.1597
     81  C         11.7640   16.8130   50.4450 C.2   218  ARG218      0.2287
     82  O         12.9390   16.8000   50.6800 O.2   218  ARG218     -0.2864
     83  CB        11.6530   16.3530   47.9990 C.3   218  ARG218      0.0334
     84  CG        11.4620   15.3390   46.7970 C.3   218  ARG218      0.0492
     85  CD        11.8730   13.8050   47.1180 C.3   218  ARG218      0.2205
     86  NE        13.3590   13.6530   47.2530 N.pl3 218  ARG218     -0.0865
     87  CZ        14.2940   14.0810   46.3600 C.cat 218  ARG218      0.5346
     88  NH1       13.9420   14.6770   45.1880 N.pl3 218  ARG218      0.1354
     89  NH2       15.5880   13.8600   46.6510 N.pl3 218  ARG218      0.1354
@<TRIPOS>BOND
     1    22    21    2
     2    21    20    1
     3    19    20    1
     4    23    20    1
     5    23    24    1
     6    24    25    1
     7    25    26    1
     8     4     3    2
     9    26    27    2
    10    64    63    2
    11     2     3    1
    12     2     5    1
    13     2     1    1
    14    59    60    1
    15    59    58    1
    16    59    62    1
    17    60    61    2
    18    28    27    1
    19    27    29    1
    20     3     8   am
    21     5     6    1
    22    63    62    1
    23    63    65   am
    24     1     7    1
    25     8     9    1
    26    16    14   ar
    27    16    18   ar
    28     9    10    1
    29     9    12    1
    30     6     7    1
    31    14    13   ar
    32    10    11    2
    33    18    17   ar
    34    13    12    1
    35    13    15   ar
    36    17    15   ar
    37    43    42   ar
    38    42    44   ar
    39    42    41    1
    40    41    40    1
    41    40    37    1
    42    30    31    1
    43    36    37    1
    44    36    32   am
    45    37    38    1
    46    31    32    1
    47    31    34    1
    48    32    33    2
    49    88    87    1
    50    34    35    1
    51    38    39    2
    52    38    45   am
    53    56    57    1
    54    56    53    1
    55    87    89    1
    56    87    86    2
    57    45    46    1
    58    84    85    1
    59    84    83    1
    60    85    86    1
    61    54    53    1
    62    54    55    2
    63    53    52    1
    64    52    47   am
    65    71    70    1
    66    70    67    1
    67    83    80    1
    68    46    47    1
    69    46    49    1
    70    47    48    2
    71    78    77    1
    72    78    72    1
    73    49    51    1
    74    49    50    1
    75    77    76    1
    76    67    66    1
    77    67    68    1
    78    80    79    1
    79    80    81    1
    80    79    74   am
    81    72    68   am
    82    72    73    1
    83    68    69    2
    84    76    73    1
    85    81    82    2
    86    74    73    1
    87    74    75    2
