@<TRIPOS>MOLECULE
tmp/1oe6A00.pdb
 94 91 0 0 0
SMALL
GASTEIGER

@<TRIPOS>ATOM
      1  N          2.6300   27.8240   42.3380 N.3    58  GLY58      -0.1210
      2  CA         3.5400   26.7270   42.5810 C.3    58  GLY58       0.1956
      3  C          4.6570   26.8740   41.5160 C.2    58  GLY58       0.2612
      4  O          4.7610   27.7830   40.7710 O.2    58  GLY58      -0.2717
      5  N          5.5330   25.9560   41.4160 N.am   59  MET59      -0.1965
      6  CA         6.6670   26.0620   40.5300 C.3    59  MET59       0.1736
      7  C          6.3540   25.4000   39.2450 C.2    59  MET59       0.2616
      8  O          6.3940   26.0790   38.2600 O.2    59  MET59      -0.2715
      9  CB         7.8510   25.3310   41.1650 C.3    59  MET59       0.0427
     10  CG         9.2150   25.4640   40.3940 C.3    59  MET59       0.0599
     11  SD        10.3410   24.0600   41.2080 S.3    59  MET59      -0.1393
     12  CE         9.4950   22.9910   42.0960 C.3    59  MET59       0.0692
     13  N          6.0730   24.1090   39.2140 N.am   60  ASN60      -0.1959
     14  CA         5.6940   23.4100   38.0370 C.3    60  ASN60       0.1804
     15  C          5.0250   22.0950   38.3790 C.2    60  ASN60       0.2463
     16  O          5.0830   21.6610   39.5750 O.2    60  ASN60      -0.2730
     17  CB         6.9220   23.2450   37.0930 C.3    60  ASN60       0.1195
     18  CG         7.8490   21.9760   37.4070 C.2    60  ASN60       0.2630
     19  OD1        8.2820   21.7530   38.5510 O.2    60  ASN60      -0.2716
     20  ND2        8.3070   21.2760   36.3370 N.am   60  ASN60      -0.0877
     21  N          4.4690   21.3820   37.3710 N.am   61  PRO61      -0.2716
     22  CA         3.7740   20.1590   37.6070 C.3    61  PRO61       0.1536
     23  C          4.6210   19.0300   38.0900 C.2    61  PRO61       0.2599
     24  O          5.8640   18.8460   37.8290 O.2    61  PRO61      -0.2715
     25  CB         3.2050   19.8350   36.2520 C.3    61  PRO61       0.0310
     26  CG         3.0460   21.0900   35.6690 C.3    61  PRO61       0.0237
     27  CD         4.3590   21.7250   35.9640 C.3    61  PRO61       0.0939
     28  N          3.9270   18.2260   38.9070 N.am   62  GLY62      -0.1955
     29  CA         4.5850   16.9750   39.1540 C.3    62  GLY62       0.1869
     30  C          3.9760   15.8640   38.2980 C.2    62  GLY62       0.2309
     31  O          2.8470   15.9090   37.8310 O.2    62  GLY62      -0.2863
     32  N          0.2970   14.7590   39.3220 N.3    65  GLY65      -0.1210
     33  CA        -0.8130   15.6670   39.7410 C.3    65  GLY65       0.1956
     34  C         -1.1940   16.4280   38.4810 C.2    65  GLY65       0.2608
     35  O         -1.8670   15.9430   37.5940 O.2    65  GLY65      -0.2717
     36  N         -0.7300   17.6550   38.3220 N.am   66  MET66      -0.2032
     37  CA        -1.0070   18.3780   37.1120 C.3    66  MET66       0.1291
     38  C         -0.5560   17.6600   35.8570 C.3    66  MET66       0.2036
     39  O         -1.2360   17.7390   34.7550 O.3    66  MET66      -0.2185
     40  CB        -0.3600   19.7280   37.1900 C.3    66  MET66       0.0360
     41  CG        -0.7510   20.5720   36.0320 C.3    66  MET66       0.0594
     42  SD        -0.4710   22.3580   36.2180 S.3    66  MET66      -0.1393
     43  CE        -1.2690   22.8750   34.8900 C.3    66  MET66       0.0692
     44  N         -3.4320   22.6860   38.7580 N.3    72  PRO72      -0.2102
     45  CA        -2.2840   23.0080   39.5280 C.3    72  PRO72       0.1504
     46  C         -2.4480   22.2760   40.7990 C.2    72  PRO72       0.2575
     47  O         -3.5600   22.1390   41.2460 O.2    72  PRO72      -0.2718
     48  CB        -2.4560   24.4730   39.7210 C.3    72  PRO72       0.0282
     49  CG        -3.3280   24.8140   38.5280 C.3    72  PRO72       0.0208
     50  CD        -4.3270   23.8180   38.6010 C.3    72  PRO72       0.0893
     51  N         -1.4000   21.7580   41.3410 N.am   73  PHE73      -0.1977
     52  CA        -1.4430   20.7200   42.3450 C.3    73  PHE73       0.1639
     53  C         -2.4670   19.6530   42.2270 C.2    73  PHE73       0.2290
     54  O         -2.9490   19.1480   43.2060 O.2    73  PHE73      -0.2864
     55  CB        -1.6220   21.4050   43.6200 C.3    73  PHE73       0.0560
     56  CG        -0.3960   22.2500   44.0650 C.ar   73  PHE73      -0.0200
     57  CD1        0.5900   21.7060   44.8210 C.ar   73  PHE73      -0.0042
     58  CD2       -0.3560   23.5800   43.7520 C.ar   73  PHE73      -0.0042
     59  CE1        1.7440   22.5560   45.2370 C.ar   73  PHE73      -0.0003
     60  CE2        0.7700   24.4320   44.0990 C.ar   73  PHE73      -0.0003
     61  CZ         1.7880   23.8760   44.7750 C.ar   73  PHE73      -0.0000
     62  N         -0.2190   12.2030   44.1120 N.3   110  GLU110     -0.1245
     63  CA         0.8260   13.1700   44.3400 C.3   110  GLU110      0.1567
     64  C          0.5490   13.6510   45.8620 C.2   110  GLU110      0.2260
     65  O         -0.4870   14.1590   46.2640 O.2   110  GLU110     -0.2867
     66  CB         0.6260   14.2570   43.2910 C.3   110  GLU110      0.0388
     67  CG         1.5540   15.4790   43.0170 C.3   110  GLU110      0.1160
     68  CD         2.9140   15.2120   42.2070 C.2   110  GLU110      0.3649
     69  OE1        3.3660   14.0960   41.4490 O.co2 110  GLU110     -0.2457
     70  OE2        3.6290   16.2850   42.3580 O.co2 110  GLU110     -0.2457
     71  N          2.2660   16.1110   47.4260 N.3   112  SER112     -0.1217
     72  CA         1.9800   17.5270   47.3970 C.3   112  SER112      0.1889
     73  C          0.6280   18.0150   47.1310 C.2   112  SER112      0.2288
     74  O          0.1570   18.9100   47.7910 O.2   112  SER112     -0.2866
     75  CB         2.8070   18.1830   46.3390 C.3   112  SER112      0.2089
     76  OG         4.0570   18.2430   46.9240 O.3   112  SER112     -0.2183
     77  N          0.6000   27.7220   38.3700 N.3   138  ASN138     -0.1296
     78  CA         2.0540   27.4730   38.3920 C.3   138  ASN138      0.1339
     79  C          2.8500   28.4220   37.4600 C.3   138  ASN138      0.2014
     80  O          2.3580   28.8510   36.3450 O.3   138  ASN138     -0.2188
     81  CB         2.3440   26.0760   37.8880 C.3   138  ASN138      0.1102
     82  CG         2.0310   25.0110   38.9210 C.2   138  ASN138      0.2623
     83  OD1        2.3770   25.1390   40.0230 O.2   138  ASN138     -0.2716
     84  ND2        1.4460   23.9450   38.5080 N.am  138  ASN138     -0.0877
     85  N          6.4890   24.5260   51.1350 N.3   214  HIS214     -0.1241
     86  CA         6.0750   23.6950   50.0680 C.3   214  HIS214      0.1621
     87  C          5.7820   22.3800   50.6720 C.2   214  HIS214      0.2264
     88  O          6.5120   21.9430   51.4970 O.2   214  HIS214     -0.2867
     89  CB         7.1800   23.5590   48.9850 C.3   214  HIS214      0.0745
     90  CG         6.6930   23.0150   47.6900 C.ar  214  HIS214      0.0817
     91  ND1        6.5400   21.6570   47.4790 N.ar  214  HIS214     -0.2268
     92  CD2        6.3700   23.6310   46.5400 C.ar  214  HIS214      0.1154
     93  CE1        6.1490   21.4850   46.2280 C.ar  214  HIS214      0.1986
     94  NE2        5.9770   22.6710   45.6630 N.ar  214  HIS214     -0.2212
@<TRIPOS>BOND
     1    39    38    1
     2    43    42    1
     3    26    27    1
     4    26    25    1
     5    38    37    1
     6    27    21    1
     7    41    42    1
     8    41    40    1
     9    25    22    1
    10    20    18   am
    11    80    79    1
    12    17    18    1
    13    17    14    1
    14    37    40    1
    15    37    36    1
    16    21    22    1
    17    21    15   am
    18    18    19    2
    19    79    78    1
    20    35    34    2
    21    22    23    1
    22    24    23    2
    23    31    30    2
    24    81    78    1
    25    81    82    1
    26    14    15    1
    27    14    13    1
    28    23    28   am
    29     8     7    2
    30    30    29    1
    31    36    34   am
    32    77    78    1
    33    15    16    2
    34    34    33    1
    35    84    82   am
    36    49    50    1
    37    49    48    1
    38    50    44    1
    39    44    45    1
    40    28    29    1
    41    82    83    2
    42    13     7   am
    43     7     6    1
    44    32    33    1
    45    45    48    1
    46    45    46    1
    47    10     9    1
    48    10    11    1
    49     6     9    1
    50     6     5    1
    51     4     3    2
    52    46    47    2
    53    46    51   am
    54    11    12    1
    55    51    52    1
    56     5     3   am
    57    69    68   ar
    58     3     2    1
    59    68    70   ar
    60    68    67    1
    61    53    52    1
    62    53    54    2
    63     1     2    1
    64    52    55    1
    65    67    66    1
    66    66    63    1
    67    55    56    1
    68    58    56   ar
    69    58    60   ar
    70    56    57   ar
    71    60    61   ar
    72    62    63    1
    73    63    64    1
    74    61    59   ar
    75    57    59   ar
    76    94    93   ar
    77    94    92   ar
    78    64    65    2
    79    93    91   ar
    80    75    76    1
    81    75    72    1
    82    92    90   ar
    83    73    72    1
    84    73    74    2
    85    72    71    1
    86    91    90   ar
    87    90    89    1
    88    89    86    1
    89    86    87    1
    90    86    85    1
    91    87    88    2
