@<TRIPOS>MOLECULE
tmp/1oe7B00.pdb
 118 116 0 0 0
SMALL
GASTEIGER

@<TRIPOS>ATOM
      1  N         19.7120  -29.6660   16.2450 N.3     6  TYR6       -0.1227
      2  CA        19.9050  -28.7660   17.3770 C.3     6  TYR6        0.1736
      3  C         20.6110  -29.4620   18.5110 C.2     6  TYR6        0.2595
      4  O         20.8060  -30.6570   18.3550 O.2     6  TYR6       -0.2718
      5  CB        18.5610  -28.1290   17.8240 C.3     6  TYR6        0.0548
      6  CG        18.7390  -26.9290   18.7200 C.ar    6  TYR6       -0.0200
      7  CD1       19.9530  -26.1950   18.6950 C.ar    6  TYR6       -0.0009
      8  CD2       17.7400  -26.3640   19.5250 C.ar    6  TYR6       -0.0009
      9  CE1       20.1220  -25.1360   19.4660 C.ar    6  TYR6        0.0417
     10  CE2       17.9440  -25.2690   20.2810 C.ar    6  TYR6        0.0417
     11  CZ        19.1670  -24.6110   20.2640 C.ar    6  TYR6        0.1957
     12  OH        19.5720  -23.5290   21.0100 O.3     6  TYR6       -0.2866
     13  N         20.9420  -28.6960   19.5490 N.am    7  PHE7       -0.1976
     14  CA        21.5620  -29.4360   20.6410 C.3     7  PHE7        0.1639
     15  C         20.7660  -29.3910   21.9190 C.2     7  PHE7        0.2290
     16  O         20.9260  -30.3360   22.6720 O.2     7  PHE7       -0.2864
     17  CB        23.0070  -29.0420   20.8200 C.3     7  PHE7        0.0560
     18  CG        23.3660  -27.6590   21.1130 C.ar    7  PHE7       -0.0200
     19  CD1       23.4320  -27.2560   22.4400 C.ar    7  PHE7       -0.0042
     20  CD2       23.6390  -26.7560   20.0950 C.ar    7  PHE7       -0.0042
     21  CE1       23.7800  -25.9310   22.7450 C.ar    7  PHE7       -0.0003
     22  CE2       23.9920  -25.4630   20.3660 C.ar    7  PHE7       -0.0003
     23  CZ        24.0410  -25.0530   21.6960 C.ar    7  PHE7       -0.0000
     24  N         17.0120  -22.4920   21.4090 N.3    12  ARG12      -0.1245
     25  CA        16.5420  -21.6690   20.2760 C.3    12  ARG12       0.1563
     26  C         15.6770  -22.4150   19.2880 C.2    12  ARG12       0.2260
     27  O         14.9330  -21.7670   18.5240 O.2    12  ARG12      -0.2867
     28  CB        17.7050  -21.0060   19.5600 C.3    12  ARG12       0.0307
     29  CG        18.6300  -20.3300   20.5570 C.3    12  ARG12       0.0489
     30  CD        19.0080  -18.9260   20.1710 C.3    12  ARG12       0.2205
     31  NE        18.2990  -17.8390   20.8280 N.pl3  12  ARG12      -0.0865
     32  CZ        17.4030  -17.0170   20.2680 C.cat  12  ARG12       0.5346
     33  NH1       17.0210  -17.1790   19.0180 N.pl3  12  ARG12       0.1354
     34  NH2       16.8720  -16.0470   20.9850 N.pl3  12  ARG12       0.1354
     35  N         29.7120  -32.8300   18.0950 N.3    37  TRP37      -0.1241
     36  CA        29.7260  -31.4870   17.4730 C.3    37  TRP37       0.1605
     37  C         30.9950  -31.2030   16.6800 C.2    37  TRP37       0.2264
     38  O         30.9360  -30.8330   15.4840 O.2    37  TRP37      -0.2867
     39  CB        29.3320  -30.4850   18.5240 C.3    37  TRP37       0.0550
     40  CG        29.2820  -29.0620   18.0280 C.ar   37  TRP37       0.0003
     41  CD1       29.9620  -28.0180   18.5540 C.ar   37  TRP37       0.0946
     42  CD2       28.6000  -28.5650   16.8900 C.ar   37  TRP37       0.0152
     43  NE1       29.7210  -26.8740   17.8290 N.ar   37  TRP37      -0.2442
     44  CE2       28.8540  -27.1810   16.8240 C.ar   37  TRP37       0.0810
     45  CE3       27.7370  -29.0960   15.9390 C.ar   37  TRP37       0.0012
     46  CZ2       28.3360  -26.3550   15.8110 C.ar   37  TRP37       0.0191
     47  CZ3       27.2350  -28.3050   14.9150 C.ar   37  TRP37       0.0001
     48  CH2       27.5000  -26.9250   14.9250 C.ar   37  TRP37       0.0015
     49  N         29.9830  -29.9850   12.9860 N.3    41  LYS41      -0.1245
     50  CA        30.1270  -28.5480   12.7370 C.3    41  LYS41       0.1561
     51  C         30.4910  -28.1400   11.3390 C.2    41  LYS41       0.2260
     52  O         29.7980  -27.3130   10.7120 O.2    41  LYS41      -0.2867
     53  CB        31.0570  -27.8930   13.7980 C.3    41  LYS41       0.0271
     54  CG        31.2950  -26.3920   13.4890 C.3    41  LYS41       0.0035
     55  CD        31.9680  -25.7440   14.6930 C.3    41  LYS41       0.0206
     56  CE        32.3850  -24.2590   14.4340 C.3    41  LYS41       0.1093
     57  NZ        31.1500  -23.4180   14.5320 N.3    41  LYS41      -0.1314
     58  N         28.2260  -22.9910   10.3840 N.3    47  GLY47      -0.1210
     59  CA        28.7880  -23.6130   11.5760 C.3    47  GLY47       0.1956
     60  C         28.0430  -23.3060   12.8860 C.2    47  GLY47       0.2612
     61  O         28.6780  -23.5830   13.8900 O.2    47  GLY47      -0.2717
     62  N         26.7460  -23.1010   12.9260 N.am   48  ARG48      -0.1965
     63  CA        26.0450  -22.8270   14.1890 C.3    48  ARG48       0.1729
     64  C         24.6300  -23.4210   14.1660 C.2    48  ARG48       0.2616
     65  O         24.0130  -23.6260   13.1150 O.2    48  ARG48      -0.2715
     66  CB        25.7980  -21.2900   14.3660 C.3    48  ARG48       0.0348
     67  CG        26.9100  -20.2970   14.2470 C.3    48  ARG48       0.0492
     68  CD        26.5730  -18.9490   14.8650 C.3    48  ARG48       0.2205
     69  NE        25.5670  -18.1760   14.0280 N.pl3  48  ARG48      -0.0865
     70  CZ        25.1850  -17.0390   14.5610 C.cat  48  ARG48       0.5346
     71  NH1       25.7000  -16.7150   15.7800 N.pl3  48  ARG48       0.1354
     72  NH2       24.2720  -16.3130   13.9460 N.pl3  48  ARG48       0.1354
     73  N         24.1980  -23.9430   15.3270 N.am   49  LEU49      -0.1964
     74  CA        22.8640  -24.5380   15.4190 C.3    49  LEU49       0.1713
     75  C         21.9160  -23.5260   16.1420 C.2    49  LEU49       0.2458
     76  O         22.4100  -22.6490   16.8520 O.2    49  LEU49      -0.2730
     77  CB        22.9800  -25.8520   16.2170 C.3    49  LEU49       0.0310
     78  CG        23.7440  -26.9830   15.5750 C.3    49  LEU49       0.0022
     79  CD1       23.6200  -28.2500   16.4530 C.3    49  LEU49       0.0001
     80  CD2       23.3220  -27.2120   14.1370 C.3    49  LEU49       0.0001
     81  N         20.6210  -23.6880   15.9740 N.am   50  PRO50      -0.2727
     82  CA        19.9430  -24.7370   15.2290 C.3    50  PRO50       0.1402
     83  C         19.9970  -24.4600   13.7070 C.2    50  PRO50       0.2269
     84  O         20.2900  -23.3310   13.2560 O.2    50  PRO50      -0.2865
     85  CB        18.4540  -24.6740   15.6270 C.3    50  PRO50       0.0296
     86  CG        18.2800  -23.2840   16.2580 C.3    50  PRO50       0.0237
     87  CD        19.6470  -22.7500   16.6530 C.3    50  PRO50       0.0939
     88  N         19.5850  -19.6000   11.3430 N.3    66  GLU66      -0.1231
     89  CA        19.1460  -18.4110   12.1080 C.3    66  GLU66       0.1699
     90  C         17.7420  -18.6850   12.5980 C.2    66  GLU66       0.2593
     91  O         16.7240  -18.5140   11.9350 O.2    66  GLU66      -0.2718
     92  CB        19.3080  -17.1520   11.2010 C.3    66  GLU66       0.0402
     93  CG        19.0550  -15.8790   12.0320 C.3    66  GLU66       0.1161
     94  CD        20.1410  -15.6640   13.1130 C.2    66  GLU66       0.3649
     95  OE1       19.7030  -15.0740   14.1950 O.co2  66  GLU66      -0.2457
     96  OE2       21.3210  -16.1500   12.9790 O.co2  66  GLU66      -0.2457
     97  N         17.5970  -19.1290   13.9060 N.am   67  SER67      -0.1938
     98  CA        16.3390  -19.6570   14.3850 C.3    67  SER67       0.2055
     99  C         15.1110  -18.8700   14.1600 C.2    67  SER67       0.2642
    100  O         14.1080  -19.4400   13.7340 O.2    67  SER67      -0.2714
    101  CB        16.4480  -20.0820   15.9300 C.3    67  SER67       0.2130
    102  OG        16.7260  -18.8860   16.6770 O.3    67  SER67      -0.2179
    103  N         15.1090  -17.5590   14.5500 N.am   68  LEU68      -0.1977
    104  CA        13.8410  -16.8670   14.3860 C.3    68  LEU68       0.1596
    105  C         13.6570  -16.4100   12.9770 C.2    68  LEU68       0.2287
    106  O         12.5250  -15.9950   12.7040 O.2    68  LEU68      -0.2864
    107  CB        13.8410  -15.6190   15.4000 C.3    68  LEU68       0.0297
    108  CG        13.4630  -16.0360   16.8110 C.3    68  LEU68       0.0022
    109  CD1       13.5920  -14.8420   17.7870 C.3    68  LEU68       0.0001
    110  CD2       12.0370  -16.6300   16.7970 C.3    68  LEU68       0.0001
    111  N         25.5040  -22.0770   30.5920 N.3   110  MET110     -0.1245
    112  CA        26.7720  -22.7850   30.5200 C.3   110  MET110      0.1570
    113  C         27.8110  -22.1380   31.4140 C.2   110  MET110      0.2261
    114  O         28.9390  -21.7620   31.1200 O.2   110  MET110     -0.2867
    115  CB        27.2150  -23.0970   29.0650 C.3   110  MET110      0.0387
    116  CG        26.4140  -24.2180   28.4040 C.3   110  MET110      0.0595
    117  SD        26.5300  -24.6440   26.6420 S.3   110  MET110     -0.1393
    118  CE        25.5900  -23.3950   25.8000 C.3   110  MET110      0.0692
@<TRIPOS>BOND
     1    58    59    1
     2    52    51    2
     3    92    93    1
     4    92    89    1
     5    51    50    1
     6    88    89    1
     7    59    60    1
     8    91    90    2
     9    93    94    1
    10    89    90    1
    11    90    97   am
    12   106   105    2
    13    50    49    1
    14    50    53    1
    15    60    62   am
    16    60    61    2
    17    62    63    1
    18   105   104    1
    19    96    94   ar
    20    94    95   ar
    21    65    64    2
    22    84    83    2
    23    54    53    1
    24    54    55    1
    25    83    82    1
    26   100    99    2
    27    97    98    1
    28    72    70    1
    29    69    70    2
    30    69    68    1
    31    80    78    1
    32    99    98    1
    33    99   103   am
    34    64    63    1
    35    64    73   am
    36    63    66    1
    37    67    66    1
    38    67    68    1
    39    98   101    1
    40   104   103    1
    41   104   107    1
    42    56    57    1
    43    56    55    1
    44    70    71    1
    45    47    48   ar
    46    47    45   ar
    47    48    46   ar
    48    82    85    1
    49    82    81    1
    50    73    74    1
    51   107   108    1
    52    74    75    1
    53    74    77    1
    54    38    37    2
    55    78    77    1
    56    78    79    1
    57    85    86    1
    58    46    44   ar
    59   101   102    1
    60    45    42   ar
    61    81    75   am
    62    81    87    1
    63    75    76    2
    64     1     2    1
    65    86    87    1
    66    37    36    1
    67   110   108    1
    68   108   109    1
    69    44    42   ar
    70    44    43   ar
    71    42    40   ar
    72     2     5    1
    73     2     3    1
    74    36    35    1
    75    36    39    1
    76     5     6    1
    77    43    41   ar
    78    40    39    1
    79    40    41   ar
    80     4     3    2
    81     3    13   am
    82    27    26    2
    83     7     6   ar
    84     7     9   ar
    85     6     8   ar
    86    33    32    1
    87    26    25    1
    88     9    11   ar
    89     8    10   ar
    90    13    14    1
    91    28    25    1
    92    28    29    1
    93    20    22   ar
    94    20    18   ar
    95    30    29    1
    96    30    31    1
    97    11    10   ar
    98    11    12    1
    99    32    31    2
   100    32    34    1
   101    25    24    1
   102    22    23   ar
   103    14    17    1
   104    14    15    1
   105    17    18    1
   106    18    19   ar
   107    23    21   ar
   108    15    16    2
   109    19    21   ar
   110   118   117    1
   111   117   116    1
   112   116   115    1
   113   115   112    1
   114   112   111    1
   115   112   113    1
   116   114   113    2
