@<TRIPOS>MOLECULE
tmp/1oebA00.pdb
 156 153 0 0 0
SMALL
GASTEIGER

@<TRIPOS>ATOM
      1  N          4.3080   -8.6010   25.2530 N.3    12  TYR12      -0.1227
      2  CA         4.3200   -9.1810   23.9120 C.3    12  TYR12       0.1736
      3  C          3.4120   -8.3370   23.0500 C.2    12  TYR12       0.2595
      4  O          2.4890   -7.6960   23.5880 O.2    12  TYR12      -0.2718
      5  CB         3.7670  -10.6160   23.9510 C.3    12  TYR12       0.0548
      6  CG         4.5430  -11.4870   24.9000 C.ar   12  TYR12      -0.0200
      7  CD1        5.7900  -11.9930   24.5240 C.ar   12  TYR12      -0.0009
      8  CD2        4.0640  -11.7850   26.1810 C.ar   12  TYR12      -0.0009
      9  CE1        6.5350  -12.7650   25.3880 C.ar   12  TYR12       0.0417
     10  CE2        4.8320  -12.5660   27.0650 C.ar   12  TYR12       0.0417
     11  CZ         6.0520  -13.0550   26.6430 C.ar   12  TYR12       0.1957
     12  OH         6.8420  -13.8300   27.4710 O.3    12  TYR12      -0.2866
     13  N          3.6320   -8.3510   21.7330 N.am   13  ASP13      -0.1960
     14  CA         2.6610   -7.8090   20.7960 C.3    13  ASP13       0.1840
     15  C          1.3450   -8.5720   20.9230 C.2    13  ASP13       0.2622
     16  O          1.3180   -9.8180   20.9170 O.2    13  ASP13      -0.2715
     17  CB         3.1410   -7.9360   19.3400 C.3    13  ASP13       0.1450
     18  CG         4.3360   -7.0300   19.0050 C.2    13  ASP13       0.3671
     19  OD1        4.8130   -6.2280   19.8600 O.co2  13  ASP13      -0.2456
     20  OD2        4.9180   -7.1560   17.8990 O.co2  13  ASP13      -0.2456
     21  N          0.2760   -7.8260   21.1170 N.am   14  PHE14      -0.1960
     22  CA        -1.0660   -8.3830   21.0240 C.3    14  PHE14       0.1771
     23  C         -1.7780   -7.7680   19.8220 C.2    14  PHE14       0.2619
     24  O         -2.0660   -6.5600   19.7630 O.2    14  PHE14      -0.2715
     25  CB        -1.8570   -8.1050   22.3250 C.3    14  PHE14       0.0574
     26  CG        -3.3220   -8.4490   22.2190 C.ar   14  PHE14      -0.0200
     27  CD1       -3.7390   -9.7280   21.8390 C.ar   14  PHE14      -0.0042
     28  CD2       -4.2870   -7.4540   22.4540 C.ar   14  PHE14      -0.0042
     29  CE1       -5.1330  -10.0420   21.7050 C.ar   14  PHE14      -0.0003
     30  CE2       -5.6270   -7.7430   22.3770 C.ar   14  PHE14      -0.0003
     31  CZ        -6.0680   -9.0170   21.9500 C.ar   14  PHE14      -0.0000
     32  N         -2.1320   -8.6050   18.8590 N.am   15  GLU15      -0.1977
     33  CA        -2.9060   -8.1060   17.7140 C.3    15  GLU15       0.1602
     34  C         -4.4210   -8.1580   17.9490 C.2    15  GLU15       0.2287
     35  O         -4.9930   -9.2610   18.1020 O.2    15  GLU15      -0.2864
     36  CB        -2.5110   -8.9290   16.4730 C.3    15  GLU15       0.0415
     37  CG        -3.2220   -8.5120   15.1900 C.3    15  GLU15       0.1163
     38  CD        -2.4880   -7.3960   14.4480 C.2    15  GLU15       0.3649
     39  OE1       -1.3240   -7.0600   14.7930 O.co2  15  GLU15      -0.2457
     40  OE2       -3.0810   -6.8730   13.4860 O.co2  15  GLU15      -0.2457
     41  N         -8.0970   -8.4100   17.0330 N.3    17  LEU17      -0.1231
     42  CA        -8.7650   -9.0000   15.8630 C.3    17  LEU17       0.1693
     43  C        -10.2310   -8.6690   15.8230 C.2    17  LEU17       0.2591
     44  O        -10.9070   -8.9000   14.8120 O.2    17  LEU17      -0.2718
     45  CB        -8.5990  -10.5010   15.9020 C.3    17  LEU17       0.0284
     46  CG        -7.1870  -11.0430   15.9300 C.3    17  LEU17       0.0019
     47  CD1       -7.3130  -12.5710   15.9950 C.3    17  LEU17       0.0001
     48  CD2       -6.3880  -10.6170   14.6970 C.3    17  LEU17       0.0001
     49  N        -10.7440   -8.1430   16.9320 N.am   18  GLU18      -0.1979
     50  CA       -12.1280   -7.7600   17.0200 C.3    18  GLU18       0.1602
     51  C        -12.1950   -6.3410   17.4850 C.2    18  GLU18       0.2287
     52  O        -11.2500   -5.8530   18.0970 O.2    18  GLU18      -0.2864
     53  CB       -12.8450   -8.6500   18.0330 C.3    18  GLU18       0.0415
     54  CG       -12.9110  -10.1200   17.6790 C.3    18  GLU18       0.1163
     55  CD       -13.9970  -10.7680   18.5020 C.2    18  GLU18       0.3649
     56  OE1      -14.9090  -10.0250   18.9250 O.co2  18  GLU18      -0.2457
     57  OE2      -13.9150  -11.9680   18.7870 O.co2  18  GLU18      -0.2457
     58  N        -13.7720   -5.1200   19.9680 N.3    20  ASP20      -0.1225
     59  CA       -13.7160   -4.9270   21.4230 C.3    20  ASP20       0.1805
     60  C        -12.3110   -5.2160   21.9860 C.2    20  ASP20       0.2597
     61  O        -12.1160   -5.2520   23.1970 O.2    20  ASP20      -0.2718
     62  CB       -14.8200   -5.7690   22.1230 C.3    20  ASP20       0.1424
     63  CG       -14.6580   -7.3010   21.9140 C.2    20  ASP20       0.3668
     64  OD1      -13.6680   -7.7380   21.3040 O.co2  20  ASP20      -0.2456
     65  OD2      -15.5160   -8.1470   22.3290 O.co2  20  ASP20      -0.2456
     66  N        -11.3380   -5.4780   21.1220 N.am   21  GLU21      -0.1979
     67  CA        -9.9970   -5.7990   21.6310 C.3    21  GLU21       0.1602
     68  C         -9.0590   -4.6050   21.5460 C.2    21  GLU21       0.2287
     69  O         -9.1250   -3.8100   20.6140 O.2    21  GLU21      -0.2864
     70  CB        -9.3890   -7.0100   20.8840 C.3    21  GLU21       0.0415
     71  CG       -10.1970   -8.2960   21.1430 C.3    21  GLU21       0.1163
     72  CD        -9.7170   -9.5090   20.3390 C.2    21  GLU21       0.3649
     73  OE1       -8.6770   -9.4300   19.6320 O.co2  21  GLU21      -0.2457
     74  OE2      -10.4120  -10.5700   20.4280 O.co2  21  GLU21      -0.2457
     75  N        -11.2120   -9.7470   36.1070 N.3    37  ASN37      -0.1240
     76  CA       -11.2790  -10.9690   35.3190 C.3    37  ASN37       0.1653
     77  C         -9.8830  -11.5930   35.2030 C.2    37  ASN37       0.2266
     78  O         -8.9340  -10.8910   34.8340 O.2    37  ASN37      -0.2867
     79  CB       -11.8350  -10.6260   33.9330 C.3    37  ASN37       0.1155
     80  CG       -12.1470  -11.8630   33.1340 C.2    37  ASN37       0.2627
     81  OD1      -11.2430  -12.5320   32.6260 O.2    37  ASN37      -0.2716
     82  ND2      -13.4310  -12.1850   33.0220 N.am   37  ASN37      -0.0877
     83  N         -8.6660  -13.6910   33.0280 N.3    39  SER39      -0.1202
     84  CA        -8.2810  -14.0490   31.6560 C.3    39  SER39       0.2020
     85  C         -8.0270  -12.8410   30.7630 C.2    39  SER39       0.2618
     86  O         -6.9940  -12.7750   30.0800 O.2    39  SER39      -0.2717
     87  CB        -9.4170  -14.8900   31.0580 C.3    39  SER39       0.2103
     88  OG        -9.5760  -16.0540   31.8760 O.3    39  SER39      -0.2182
     89  N         -8.9880  -11.9060   30.7740 N.am   40  TRP40      -0.1975
     90  CA        -8.9600  -10.7210   29.9320 C.3    40  TRP40       0.1640
     91  C         -9.2870   -9.4760   30.7400 C.2    40  TRP40       0.2290
     92  O        -10.3220   -9.4020   31.3780 O.2    40  TRP40      -0.2864
     93  CB       -10.0000  -10.8480   28.8210 C.3    40  TRP40       0.0576
     94  CG        -9.6830  -11.9050   27.7630 C.ar   40  TRP40       0.0006
     95  CD1       -9.8750  -13.2740   27.8700 C.ar   40  TRP40       0.0946
     96  CD2       -9.1780  -11.6730   26.4410 C.ar   40  TRP40       0.0152
     97  NE1       -9.5100  -13.8960   26.6940 N.ar   40  TRP40      -0.2442
     98  CE2       -9.0690  -12.9430   25.8010 C.ar   40  TRP40       0.0810
     99  CE3       -8.7960  -10.5160   25.7200 C.ar   40  TRP40       0.0012
    100  CZ2       -8.6110  -13.0850   24.4740 C.ar   40  TRP40       0.0191
    101  CZ3       -8.3290  -10.6610   24.3570 C.ar   40  TRP40       0.0001
    102  CH2       -8.2510  -11.9290   23.7680 C.ar   40  TRP40       0.0015
    103  N         -9.5800   -5.1090   30.9800 N.3    42  THR42      -0.1218
    104  CA       -10.0750   -3.9920   30.2210 C.3    42  THR42       0.1862
    105  C         -9.1020   -2.8360   30.3700 C.2    42  THR42       0.2287
    106  O         -8.6840   -2.5170   31.4770 O.2    42  THR42      -0.2866
    107  CB       -11.4600   -3.6170   30.7740 C.3    42  THR42       0.1770
    108  OG1      -12.3790   -4.6640   30.4330 O.3    42  THR42      -0.2211
    109  CG2      -12.0020   -2.4540   30.0050 C.3    42  THR42       0.0375
    110  N        -10.5590    2.1390   24.1370 N.3    49  LEU49      -0.1231
    111  CA       -10.9250    1.1750   25.1750 C.3    49  LEU49       0.1693
    112  C        -11.0400   -0.2440   24.5630 C.2    49  LEU49       0.2593
    113  O        -11.5120   -0.3920   23.4250 O.2    49  LEU49      -0.2718
    114  CB       -12.3120    1.5390   25.7570 C.3    49  LEU49       0.0284
    115  CG       -12.4400    2.8460   26.5110 C.3    49  LEU49       0.0019
    116  CD1      -13.8770    3.0060   27.0410 C.3    49  LEU49       0.0001
    117  CD2      -11.4140    2.8800   27.6550 C.3    49  LEU49       0.0001
    118  N        -10.6440   -1.2850   25.3080 N.am   50  GLY50      -0.1942
    119  CA       -10.7510   -2.6430   24.7870 C.3    50  GLY50       0.2014
    120  C        -10.2290   -3.7010   25.7590 C.2    50  GLY50       0.2638
    121  O         -9.6500   -3.3720   26.8220 O.2    50  GLY50      -0.2714
    122  N        -10.4520   -4.9450   25.3930 N.am   51  LEU51      -0.1977
    123  CA       -10.0080   -6.1160   26.1430 C.3    51  LEU51       0.1596
    124  C         -8.6580   -6.6080   25.6410 C.2    51  LEU51       0.2287
    125  O         -8.3500   -6.5480   24.4530 O.2    51  LEU51      -0.2864
    126  CB       -11.0430   -7.2620   25.9390 C.3    51  LEU51       0.0297
    127  CG       -12.4610   -6.9590   26.4130 C.3    51  LEU51       0.0022
    128  CD1      -13.3710   -8.0810   25.9260 C.3    51  LEU51       0.0001
    129  CD2      -12.4320   -6.9520   27.9330 C.3    51  LEU51       0.0001
    130  N         -5.4730   -9.8860   26.7220 N.3    53  PRO53      -0.2116
    131  CA        -5.1790  -10.9870   27.6580 C.3    53  PRO53       0.1372
    132  C         -4.3680  -10.5090   28.8240 C.2    53  PRO53       0.2244
    133  O         -3.3810   -9.8080   28.6120 O.2    53  PRO53      -0.2868
    134  CB        -4.3350  -11.9650   26.8150 C.3    53  PRO53       0.0268
    135  CG        -4.7090  -11.6250   25.2960 C.3    53  PRO53       0.0207
    136  CD        -4.8670  -10.1210   25.3920 C.3    53  PRO53       0.0892
    137  N         -2.3890  -12.0240   30.6740 N.3    55  ASN55      -0.1225
    138  CA        -1.0330  -12.5570   30.7110 C.3    55  ASN55       0.1785
    139  C         -0.1110  -11.9720   29.6550 C.2    55  ASN55       0.2597
    140  O          1.0570  -12.3360   29.5440 O.2    55  ASN55      -0.2718
    141  CB        -0.9910  -14.1090   30.8060 C.3    55  ASN55       0.1169
    142  CG        -1.4870  -14.8160   29.5420 C.2    55  ASN55       0.2627
    143  OD1       -1.8390  -14.1900   28.5340 O.2    55  ASN55      -0.2716
    144  ND2       -1.5570  -16.1310   29.6170 N.am   55  ASN55      -0.0877
    145  N         -0.6340  -11.0470   28.8650 N.am   56  TYR56      -0.1976
    146  CA         0.2090  -10.2910   27.9360 C.3    56  TYR56       0.1639
    147  C          0.8280   -9.0340   28.5250 C.2    56  TYR56       0.2290
    148  O          1.6030   -8.3790   27.8370 O.2    56  TYR56      -0.2864
    149  CB        -0.5620   -9.9480   26.6410 C.3    56  TYR56       0.0560
    150  CG        -0.4700  -11.0510   25.6100 C.ar   56  TYR56      -0.0198
    151  CD1       -0.9140  -12.3450   25.8990 C.ar   56  TYR56      -0.0009
    152  CD2        0.0540  -10.7930   24.3330 C.ar   56  TYR56      -0.0009
    153  CE1       -0.7850  -13.3750   24.9530 C.ar   56  TYR56       0.0417
    154  CE2        0.1700  -11.8230   23.3760 C.ar   56  TYR56       0.0417
    155  CZ        -0.2670  -13.0990   23.7010 C.ar   56  TYR56       0.1957
    156  OH        -0.1570  -14.1370   22.7890 O.3    56  TYR56      -0.2866
@<TRIPOS>BOND
     1    40    38   ar
     2    38    39   ar
     3    38    37    1
     4    48    46    1
     5    44    43    2
     6    37    36    1
     7    43    42    1
     8    43    49   am
     9    42    45    1
    10    42    41    1
    11    45    46    1
    12    46    47    1
    13    36    33    1
    14    49    50    1
    15    50    51    1
    16    50    53    1
    17    51    52    2
    18    54    53    1
    19    54    55    1
    20    33    34    1
    21    33    32    1
    22    20    18   ar
    23    34    35    2
    24    55    57   ar
    25    55    56   ar
    26    32    23   am
    27    18    17    1
    28    18    19   ar
    29    17    14    1
    30    73    72   ar
    31    24    23    2
    32    23    22    1
    33    58    59    1
    34    72    74   ar
    35    72    71    1
    36    69    68    2
    37    14    15    1
    38    14    13    1
    39    70    71    1
    40    70    67    1
    41    16    15    2
    42    15    21   am
    43    22    21    1
    44    22    25    1
    45    66    67    1
    46    66    60   am
    47    64    63   ar
    48    59    60    1
    49    59    62    1
    50    68    67    1
    51    29    27   ar
    52    29    31   ar
    53    13     3   am
    54    27    26   ar
    55    63    62    1
    56    63    65   ar
    57    31    30   ar
    58    60    61    2
    59    26    25    1
    60    26    28   ar
    61    30    28   ar
    62   156   155    1
    63     3     4    2
    64     3     2    1
    65   154   155   ar
    66   154   152   ar
    67   113   112    2
    68   155   153   ar
    69   102   101   ar
    70   102   100   ar
    71     2     5    1
    72     2     1    1
    73     5     6    1
    74   110   111    1
    75   152   150   ar
    76   101    99   ar
    77   125   124    2
    78   100    98   ar
    79     7     6   ar
    80     7     9   ar
    81   112   111    1
    82   112   118   am
    83   119   118    1
    84   119   120    1
    85     6     8   ar
    86   153   151   ar
    87   111   114    1
    88   135   136    1
    89   135   134    1
    90     9    11   ar
    91   136   130    1
    92   122   120   am
    93   122   123    1
    94   150   151   ar
    95   150   149    1
    96   124   123    1
    97    99    96   ar
    98   114   115    1
    99   120   121    2
   100    98    96   ar
   101    98    97   ar
   102   128   127    1
   103   126   123    1
   104   126   127    1
   105     8    10   ar
   106   127   129    1
   107    96    94   ar
   108   115   116    1
   109   115   117    1
   110   149   146    1
   111    11    10   ar
   112    11    12    1
   113    97    95   ar
   114   130   131    1
   115   134   131    1
   116   131   132    1
   117    94    95   ar
   118    94    93    1
   119   148   147    2
   120   146   147    1
   121   146   145    1
   122   143   142    2
   123   133   132    2
   124    93    90    1
   125   145   139   am
   126   142   144   am
   127   142   141    1
   128   140   139    2
   129   139   138    1
   130    90    91    1
   131    90    89    1
   132   109   107    1
   133    86    85    2
   134   104   105    1
   135   104   107    1
   136   104   103    1
   137   105   106    2
   138   108   107    1
   139   137   138    1
   140   138   141    1
   141    91    92    2
   142    85    89   am
   143    85    84    1
   144    87    84    1
   145    87    88    1
   146    84    83    1
   147    81    80    2
   148    82    80   am
   149    80    79    1
   150    79    76    1
   151    78    77    2
   152    77    76    1
   153    76    75    1
