@<TRIPOS>MOLECULE
tmp/1oecA00.pdb
 202 194 0 0 0
SMALL
GASTEIGER

@<TRIPOS>ATOM
      1  N        -11.6480   74.0050   -8.6720 N.3    19  LYS19      -0.1245
      2  CA       -10.7060   74.1230   -7.5600 C.3    19  LYS19       0.1561
      3  C        -10.4200   72.8000   -6.8500 C.2    19  LYS19       0.2260
      4  O        -11.3400   72.0900   -6.4350 O.2    19  LYS19      -0.2867
      5  CB       -11.2350   75.1530   -6.5430 C.3    19  LYS19       0.0271
      6  CG       -10.1650   75.8930   -5.7100 C.3    19  LYS19       0.0035
      7  CD        -9.5600   75.0490   -4.5780 C.3    19  LYS19       0.0206
      8  CE        -8.4290   75.7900   -3.8590 C.3    19  LYS19       0.1093
      9  NZ        -7.7190   74.9400   -2.8570 N.3    19  LYS19      -0.1314
     10  N         -9.7490   70.4140   -3.9980 N.3    21  LEU21      -0.1231
     11  CA       -10.0410   70.3890   -2.5720 C.3    21  LEU21       0.1693
     12  C         -8.8780   69.8510   -1.7310 C.2    21  LEU21       0.2593
     13  O         -8.7730   70.1550   -0.5430 O.2    21  LEU21      -0.2718
     14  CB       -11.3120   69.5810   -2.3170 C.3    21  LEU21       0.0284
     15  CG       -12.5340   70.1310   -3.0530 C.3    21  LEU21       0.0019
     16  CD1      -13.7420   69.2310   -2.8350 C.3    21  LEU21       0.0001
     17  CD2      -12.8140   71.5420   -2.5710 C.3    21  LEU21       0.0001
     18  N         -8.0020   69.0630   -2.3520 N.am   22  GLY22      -0.1942
     19  CA        -6.8610   68.5140   -1.6370 C.3    22  GLY22       0.2014
     20  C         -6.4130   67.1620   -2.1530 C.2    22  GLY22       0.2639
     21  O         -7.2190   66.3920   -2.6710 O.2    22  GLY22      -0.2714
     22  N         -5.1220   66.8760   -2.0120 N.am   23  GLU23      -0.1963
     23  CA        -4.5490   65.6070   -2.4590 C.3    23  GLU23       0.1733
     24  C         -4.7160   64.5200   -1.3950 C.2    23  GLU23       0.2617
     25  O         -4.6740   64.8060   -0.1960 O.2    23  GLU23      -0.2715
     26  CB        -3.0710   65.7890   -2.8080 C.3    23  GLU23       0.0429
     27  CG        -2.8440   66.6800   -4.0230 C.3    23  GLU23       0.1163
     28  CD        -1.3920   67.0880   -4.1970 C.2    23  GLU23       0.3649
     29  OE1       -1.1520   68.2160   -4.6800 O.co2  23  GLU23      -0.2457
     30  OE2       -0.4900   66.2900   -3.8570 O.co2  23  GLU23      -0.2457
     31  N         -4.9220   63.2810   -1.8410 N.am   24  GLY24      -0.1940
     32  CA        -5.1090   62.1760   -0.9150 C.3    24  GLY24       0.2014
     33  C         -4.0190   61.1250   -0.9430 C.2    24  GLY24       0.2639
     34  O         -2.8970   61.3850   -1.3860 O.2    24  GLY24      -0.2714
     35  N         -4.3520   59.9340   -0.4550 N.am   25  CYS25      -0.1953
     36  CA        -3.3930   58.8430   -0.4230 C.3    25  CYS25       0.1843
     37  C         -3.3530   58.0270   -1.6970 C.2    25  CYS25       0.2625
     38  O         -2.3290   57.4270   -2.0190 O.2    25  CYS25      -0.2714
     39  CB        -3.6810   57.8440    0.7370 C.3    25  CYS25       0.0997
     40  SG        -5.2710   56.9870    0.6280 S.3    25  CYS25      -0.0797
     41  N         -4.4670   58.0080   -2.4230 N.am   26  PHE26      -0.1960
     42  CA        -4.5690   57.2590   -3.6700 C.3    26  PHE26       0.1771
     43  C         -5.2720   58.0660   -4.7630 C.2    26  PHE26       0.2620
     44  O         -6.0410   57.5230   -5.5570 O.2    26  PHE26      -0.2715
     45  CB        -5.2930   55.9390   -3.4270 C.3    26  PHE26       0.0574
     46  CG        -6.7220   56.0240   -2.9830 C.ar   26  PHE26      -0.0200
     47  CD1       -7.1020   56.1390   -1.6490 C.ar   26  PHE26      -0.0042
     48  CD2       -7.7870   55.9400   -3.9270 C.ar   26  PHE26      -0.0042
     49  CE1       -8.4350   56.1680   -1.2590 C.ar   26  PHE26      -0.0003
     50  CE2       -9.0910   56.0040   -3.5530 C.ar   26  PHE26      -0.0003
     51  CZ        -9.4370   56.0790   -2.2280 C.ar   26  PHE26      -0.0000
     52  N         -4.9870   59.3640   -4.8020 N.am   27  GLY27      -0.1940
     53  CA        -5.5910   60.2320   -5.7960 C.3    27  GLY27       0.2014
     54  C         -5.7890   61.6380   -5.2700 C.2    27  GLY27       0.2639
     55  O         -4.9940   62.1230   -4.4680 O.2    27  GLY27      -0.2714
     56  N         -6.8400   62.3030   -5.7410 N.am   28  GLN28      -0.1963
     57  CA        -7.1530   63.6570   -5.3080 C.3    28  GLN28       0.1733
     58  C         -8.6110   63.9890   -5.5640 C.2    28  GLN28       0.2616
     59  O         -9.2690   63.3400   -6.3760 O.2    28  GLN28      -0.2715
     60  CB        -6.2650   64.6820   -6.0130 C.3    28  GLN28       0.0408
     61  CG        -6.5860   64.8950   -7.4810 C.3    28  GLN28       0.0908
     62  CD        -5.8750   66.1060   -8.0540 C.2    28  GLN28       0.2608
     63  OE1       -5.4660   67.0070   -7.3170 O.2    28  GLN28      -0.2717
     64  NE2       -5.7290   66.1380   -9.3740 N.am   28  GLN28      -0.0878
     65  N         -9.1070   65.0050   -4.8620 N.am   29  VAL29      -0.1977
     66  CA       -10.4920   65.4450   -4.9930 C.3    29  VAL29       0.1596
     67  C        -10.5490   66.9130   -5.3990 C.2    29  VAL29       0.2287
     68  O         -9.7960   67.7380   -4.8790 O.2    29  VAL29      -0.2864
     69  CB       -11.2490   65.2880   -3.6610 C.3    29  VAL29       0.0276
     70  CG1      -12.7360   65.5040   -3.8740 C.3    29  VAL29       0.0022
     71  CG2      -10.9810   63.9190   -3.0570 C.3    29  VAL29       0.0022
     72  N        -18.2680   66.9710   -5.4600 N.3    46  ALA46      -0.1245
     73  CA       -16.8380   66.7170   -5.3150 C.3    46  ALA46       0.1562
     74  C        -16.4930   65.5140   -6.1870 C.2    46  ALA46       0.2260
     75  O        -17.2310   64.5210   -6.2240 O.2    46  ALA46      -0.2867
     76  CB       -16.4780   66.4500   -3.8600 C.3    46  ALA46       0.0290
     77  N        -13.6370   62.6840   -7.0490 N.3    48  LYS48      -0.1245
     78  CA       -12.4250   61.9580   -6.6630 C.3    48  LYS48       0.1561
     79  C        -11.8670   61.3110   -7.9290 C.2    48  LYS48       0.2260
     80  O        -12.5920   60.6260   -8.6570 O.2    48  LYS48      -0.2867
     81  CB       -12.7330   60.8780   -5.6140 C.3    48  LYS48       0.0271
     82  CG       -13.5250   61.3850   -4.4250 C.3    48  LYS48       0.0035
     83  CD       -13.7190   60.3230   -3.3600 C.3    48  LYS48       0.0206
     84  CE       -12.4400   60.1000   -2.5790 C.3    48  LYS48       0.1093
     85  NZ       -12.7290   59.7070   -1.1680 N.3    48  LYS48      -0.1314
     86  N        -21.3010   60.4910    3.4580 N.3    79  ILE79      -0.1245
     87  CA       -21.2780   61.1570    2.1660 C.3    79  ILE79       0.1561
     88  C        -21.8160   60.2240    1.0870 C.2    79  ILE79       0.2260
     89  O        -21.2930   59.1270    0.8870 O.2    79  ILE79      -0.2867
     90  CB       -19.8650   61.6240    1.8240 C.3    79  ILE79       0.0252
     91  CG1      -19.5990   62.9470    2.5370 C.3    79  ILE79       0.0019
     92  CG2      -19.6780   61.7320    0.3140 C.3    79  ILE79       0.0019
     93  CD1      -18.3650   63.6510    2.0750 C.3    79  ILE79       0.0001
     94  N        -19.2420   62.3830   -5.6570 N.3    95  VAL95      -0.1231
     95  CA       -19.8630   62.3140   -4.3400 C.3    95  VAL95       0.1692
     96  C        -20.2820   63.7180   -3.9380 C.2    95  VAL95       0.2592
     97  O        -19.8640   64.6940   -4.5710 O.2    95  VAL95      -0.2718
     98  CB       -18.8670   61.7570   -3.2980 C.3    95  VAL95       0.0266
     99  CG1      -18.3790   60.3820   -3.7270 C.3    95  VAL95       0.0020
    100  CG2      -17.6900   62.6980   -3.1360 C.3    95  VAL95       0.0020
    101  N        -21.0820   63.8350   -2.8810 N.am   96  GLU96      -0.1966
    102  CA       -21.5350   65.1540   -2.4550 C.3    96  GLU96       0.1733
    103  C        -20.4450   66.0400   -1.8730 C.2    96  GLU96       0.2616
    104  O        -19.4100   65.5580   -1.4040 O.2    96  GLU96      -0.2715
    105  CB       -22.7530   65.0720   -1.5310 C.3    96  GLU96       0.0429
    106  CG       -22.5720   64.3060   -0.2500 C.3    96  GLU96       0.1163
    107  CD       -23.8390   64.3000    0.5790 C.2    96  GLU96       0.3649
    108  OE1      -24.2640   65.3900    1.0220 O.co2  96  GLU96      -0.2457
    109  OE2      -24.4170   63.2100    0.7740 O.co2  96  GLU96      -0.2457
    110  N        -20.6730   67.3470   -1.9640 N.am   97  TYR97      -0.1960
    111  CA       -19.7340   68.3550   -1.4870 C.3    97  TYR97       0.1771
    112  C        -19.9600   68.7890   -0.0250 C.2    97  TYR97       0.2619
    113  O        -21.1030   68.9720    0.4200 O.2    97  TYR97      -0.2715
    114  CB       -19.8020   69.5600   -2.4280 C.3    97  TYR97       0.0574
    115  CG       -18.8950   70.7170   -2.0780 C.ar   97  TYR97      -0.0198
    116  CD1      -17.5130   70.5530   -2.0040 C.ar   97  TYR97      -0.0009
    117  CD2      -19.4260   71.9840   -1.8210 C.ar   97  TYR97      -0.0009
    118  CE1      -16.6870   71.6190   -1.6800 C.ar   97  TYR97       0.0417
    119  CE2      -18.6060   73.0590   -1.4960 C.ar   97  TYR97       0.0417
    120  CZ       -17.2430   72.8700   -1.4250 C.ar   97  TYR97       0.1957
    121  OH       -16.4350   73.9240   -1.0680 O.3    97  TYR97      -0.2866
    122  N        -18.8590   68.9270    0.7170 N.am   98  ALA98      -0.1963
    123  CA       -18.8880   69.3490    2.1190 C.3    98  ALA98       0.1728
    124  C        -18.1360   70.6690    2.2080 C.2    98  ALA98       0.2617
    125  O        -16.9100   70.6930    2.1290 O.2    98  ALA98      -0.2715
    126  CB       -18.2250   68.3040    3.0040 C.3    98  ALA98       0.0334
    127  N        -18.8810   71.7560    2.3980 N.am   99  SER99      -0.1936
    128  CA       -18.3280   73.1110    2.4660 C.3    99  SER99       0.2055
    129  C        -17.3670   73.4910    3.6030 C.2    99  SER99       0.2643
    130  O        -16.4400   74.2760    3.3820 O.2    99  SER99      -0.2714
    131  CB       -19.4660   74.1290    2.3960 C.3    99  SER99       0.2130
    132  OG       -20.4690   73.8300    3.3480 O.3    99  SER99      -0.2179
    133  N        -17.5830   72.9580    4.8070 N.am  100  LYS100     -0.1963
    134  CA       -16.7210   73.2910    5.9490 C.3   100  LYS100      0.1728
    135  C        -15.3710   72.5720    5.9560 C.2   100  LYS100      0.2617
    136  O        -14.4000   73.0930    6.5050 O.2   100  LYS100     -0.2715
    137  CB       -17.4450   73.0570    7.2840 C.3   100  LYS100      0.0311
    138  CG       -18.8040   73.7630    7.4450 C.3   100  LYS100      0.0038
    139  CD       -18.7160   75.2910    7.4820 C.3   100  LYS100      0.0206
    140  CE       -18.1550   75.8380    8.7960 C.3   100  LYS100      0.1093
    141  NZ       -16.7010   75.5540    8.9810 N.3   100  LYS100     -0.1314
    142  N        -15.3100   71.3820    5.3580 N.am  101  GLY101     -0.1940
    143  CA       -14.0590   70.6350    5.3130 C.3   101  GLY101      0.2014
    144  C        -14.0570   69.4190    6.2190 C.2   101  GLY101      0.2638
    145  O        -15.1160   68.8550    6.4980 O.2   101  GLY101     -0.2714
    146  N        -12.8760   68.9950    6.6640 N.am  102  ASN102     -0.1972
    147  CA       -12.7740   67.8300    7.5470 C.3   102  ASN102      0.1688
    148  C        -12.8460   68.1790    9.0330 C.2   102  ASN102      0.2292
    149  O        -12.3180   69.1990    9.4790 O.2   102  ASN102     -0.2864
    150  CB       -11.5110   67.0120    7.2520 C.3   102  ASN102      0.1181
    151  CG       -10.2480   67.8390    7.3180 C.2   102  ASN102      0.2629
    152  OD1       -9.3630   67.5880    8.1420 O.2   102  ASN102     -0.2716
    153  ND2      -10.1500   68.8350    6.4410 N.am  102  ASN102     -0.0877
    154  N         -9.5210   69.5590   10.9750 N.3   105  GLU105     -0.1245
    155  CA        -9.1870   70.9550   10.6620 C.3   105  GLU105      0.1567
    156  C        -10.2800   71.9060   11.1400 C.2   105  GLU105      0.2260
    157  O         -9.9960   73.0050   11.6220 O.2   105  GLU105     -0.2867
    158  CB        -8.9520   71.1360    9.1580 C.3   105  GLU105      0.0388
    159  CG        -7.6800   70.4650    8.6310 C.3   105  GLU105      0.1160
    160  CD        -7.5010   70.6160    7.1190 C.2   105  GLU105      0.3649
    161  OE1       -6.4620   70.1470    6.6050 O.co2 105  GLU105     -0.2457
    162  OE2       -8.3890   71.1910    6.4410 O.co2 105  GLU105     -0.2457
    163  N         -9.9700   63.2300   10.4850 N.3   146  ARG146     -0.1231
    164  CA        -9.5940   63.6590    9.1410 C.3   146  ARG146      0.1694
    165  C        -10.5100   63.0420    8.0820 C.2   146  ARG146      0.2592
    166  O        -10.6570   63.5970    7.0000 O.2   146  ARG146     -0.2718
    167  CB        -8.1410   63.2820    8.8460 C.3   146  ARG146      0.0321
    168  CG        -7.9290   61.7830    8.7610 C.3   146  ARG146      0.0489
    169  CD        -6.4840   61.4020    8.4850 C.3   146  ARG146      0.2205
    170  NE        -6.3400   59.9460    8.4320 N.pl3 146  ARG146     -0.0865
    171  CZ        -6.2430   59.1560    9.5000 C.cat 146  ARG146      0.5346
    172  NH1       -6.2590   59.6680   10.7290 N.pl3 146  ARG146      0.1354
    173  NH2       -6.1710   57.8420    9.3410 N.pl3 146  ARG146      0.1354
    174  N        -11.1380   61.9090    8.4070 N.am  147  ASN147     -0.1974
    175  CA       -12.0380   61.2240    7.4760 C.3   147  ASN147      0.1688
    176  C        -13.5240   61.5060    7.6910 C.2   147  ASN147      0.2292
    177  O        -14.3810   60.7350    7.2400 O.2   147  ASN147     -0.2864
    178  CB       -11.7900   59.7130    7.4890 C.3   147  ASN147      0.1181
    179  CG       -10.3750   59.3380    7.0730 C.2   147  ASN147      0.2629
    180  OD1       -9.9010   58.2550    7.3910 O.2   147  ASN147     -0.2716
    181  ND2       -9.6940   60.2350    6.3640 N.am  147  ASN147     -0.0877
    182  N        -16.3120   64.5700    7.1970 N.3   149  LEU149     -0.1245
    183  CA       -16.5100   65.8850    6.6220 C.3   149  LEU149      0.1561
    184  C        -17.7420   66.5470    7.1970 C.2   149  LEU149      0.2260
    185  O        -18.6690   65.8720    7.6550 O.2   149  LEU149     -0.2867
    186  CB       -16.6110   65.7930    5.1000 C.3   149  LEU149      0.0270
    187  CG       -15.3460   65.3120    4.3830 C.3   149  LEU149      0.0019
    188  CD1      -15.6590   65.0910    2.9420 C.3   149  LEU149      0.0001
    189  CD2      -14.2000   66.3090    4.5200 C.3   149  LEU149      0.0001
    190  N        -16.6560   59.7880    5.6520 N.3   159  ALA159     -0.1231
    191  CA       -16.1450   59.6250    4.2910 C.3   159  ALA159      0.1694
    192  C        -14.9760   58.6410    4.1580 C.2   159  ALA159      0.2592
    193  O        -14.6060   57.9480    5.1140 O.2   159  ALA159     -0.2718
    194  CB       -15.7360   60.9920    3.7290 C.3   159  ALA159      0.0304
    195  N        -14.4440   58.5760    2.9360 N.am  160  ASP160     -0.1974
    196  CA       -13.3020   57.7470    2.5630 C.3   160  ASP160      0.1709
    197  C        -13.4420   56.2440    2.8060 C.2   160  ASP160      0.2293
    198  O        -12.8740   55.6940    3.7520 O.2   160  ASP160     -0.2864
    199  CB       -12.0280   58.3110    3.2060 C.3   160  ASP160      0.1436
    200  CG       -11.9020   59.8260    3.0180 C.2   160  ASP160      0.3671
    201  OD1      -11.0990   60.4550    3.7390 O.co2 160  ASP160     -0.2456
    202  OD2      -12.6160   60.3970    2.1630 O.co2 160  ASP160     -0.2456
@<TRIPOS>BOND
     1    64    62   am
     2     1     2    1
     3    80    79    2
     4    62    61    1
     5    62    63    2
     6    79    78    1
     7     2     3    1
     8     2     5    1
     9    61    60    1
    10    77    78    1
    11     3     4    2
    12    78    81    1
    13     5     6    1
    14    59    58    2
    15    75    74    2
    16    74    73    1
    17    60    57    1
    18    53    54    1
    19    53    52    1
    20    56    57    1
    21    56    54   am
    22     6     7    1
    23    94    95    1
    24    81    82    1
    25    58    57    1
    26    58    65   am
    27    44    43    2
    28    72    73    1
    29    67    66    1
    30    67    68    2
    31    73    76    1
    32    54    55    2
    33    66    65    1
    34    66    69    1
    35    52    43   am
    36    43    42    1
    37    29    28   ar
    38     7     8    1
    39    97    96    2
    40    82    83    1
    41    95    96    1
    42    95    98    1
    43    28    27    1
    44    28    30   ar
    45    27    26    1
    46    10    11    1
    47    96   101   am
    48    48    50   ar
    49    48    46   ar
    50    70    69    1
    51     8     9    1
    52    99    98    1
    53    42    45    1
    54    42    41    1
    55    69    71    1
    56    50    51   ar
    57    45    46    1
    58    83    84    1
    59    98   100    1
    60    15    16    1
    61    15    17    1
    62    15    14    1
    63    46    47   ar
    64   101   102    1
    65    26    23    1
    66    21    20    2
    67    84    85    1
    68    11    14    1
    69    11    12    1
    70    23    22    1
    71    23    24    1
    72   102   103    1
    73   102   105    1
    74   114   115    1
    75   114   111    1
    76    41    37   am
    77    18    12   am
    78    18    19    1
    79    51    49   ar
    80    20    22   am
    81    20    19    1
    82   115   116   ar
    83   115   117   ar
    84    38    37    2
    85   116   118   ar
    86   110   103   am
    87   110   111    1
    88   103   104    2
    89    31    24   am
    90    31    32    1
    91   117   119   ar
    92    12    13    2
    93    37    36    1
    94   118   120   ar
    95    47    49   ar
    96   105   106    1
    97   119   120   ar
    98   111   112    1
    99   120   121    1
   100    24    25    2
   101    34    33    2
   102    33    32    1
   103    33    35   am
   104    35    36    1
   105    36    39    1
   106   106   107    1
   107   112   113    2
   108   112   122   am
   109    92    90    1
   110   107   109   ar
   111   107   108   ar
   112    40    39    1
   113   122   123    1
   114    89    88    2
   115    88    87    1
   116    90    87    1
   117    90    91    1
   118    93    91    1
   119   123   124    1
   120   123   126    1
   121   125   124    2
   122   202   200   ar
   123    87    86    1
   124   124   127   am
   125   131   128    1
   126   131   132    1
   127   127   128    1
   128   128   129    1
   129   196   197    1
   130   196   195    1
   131   196   199    1
   132   197   198    2
   133   195   192   am
   134   188   187    1
   135   200   199    1
   136   200   201   ar
   137   130   129    2
   138   129   133   am
   139   194   191    1
   140   192   191    1
   141   192   193    2
   142   191   190    1
   143   187   189    1
   144   187   186    1
   145   133   134    1
   146   186   183    1
   147   143   142    1
   148   143   144    1
   149   142   135   am
   150   134   135    1
   151   134   137    1
   152   135   136    2
   153   144   145    2
   154   144   146   am
   155   181   179   am
   156   153   151   am
   157   162   160   ar
   158   161   160   ar
   159   183   184    1
   160   183   182    1
   161   146   147    1
   162   166   165    2
   163   179   180    2
   164   179   178    1
   165   160   159    1
   166   184   185    2
   167   177   176    2
   168   150   151    1
   169   150   147    1
   170   137   138    1
   171   151   152    2
   172   138   139    1
   173   175   178    1
   174   175   176    1
   175   175   174    1
   176   139   140    1
   177   147   148    1
   178   165   174   am
   179   165   164    1
   180   170   169    1
   181   170   171    2
   182   169   168    1
   183   159   158    1
   184   168   167    1
   185   140   141    1
   186   167   164    1
   187   148   149    2
   188   164   163    1
   189   158   155    1
   190   173   171    1
   191   171   172    1
   192   155   154    1
   193   155   156    1
   194   156   157    2
