@<TRIPOS>MOLECULE
tmp/1oewA00.pdb
 88 83 0 0 0
SMALL
GASTEIGER

@<TRIPOS>ATOM
      1  N         11.8100   32.4140   10.7240 N.3    35  ASP35      -0.1239
      2  CA        10.3500   32.5550   10.6700 C.3    35  ASP35       0.1674
      3  C          9.9290   33.1610    9.3370 C.2    35  ASP35       0.2266
      4  O         10.0050   34.3770    9.1240 O.2    35  ASP35      -0.2867
      5  CB         9.9150   33.4640   11.8090 C.3    35  ASP35       0.1410
      6  CG         8.4280   33.6930   11.8750 C.2    35  ASP35       0.3668
      7  OD1        7.7100   32.9360   11.1690 O.co2  35  ASP35      -0.2456
      8  OD2        7.9850   34.5770   12.6490 O.co2  35  ASP35      -0.2456
      9  N          7.0430   33.6230    8.4220 N.3    37  GLY37      -0.1210
     10  CA         5.8370   34.3870    8.6880 C.3    37  GLY37       0.1956
     11  C          6.0550   35.7600    9.3110 C.2    37  GLY37       0.2613
     12  O          5.0720   36.4200    9.6840 O.2    37  GLY37      -0.2717
     13  N          7.2900   36.2360    9.4140 N.am   38  SER38      -0.1938
     14  CA         7.5560   37.5870    9.9360 C.3    38  SER38       0.2055
     15  C          8.8370   38.0800    9.3150 C.2    38  SER38       0.2643
     16  O          9.5260   37.3480    8.5960 O.2    38  SER38      -0.2714
     17  CB         7.6160   37.6370   11.4610 C.3    38  SER38       0.2130
     18  OG         8.7700   36.9380   11.9270 O.3    38  SER38      -0.2179
     19  N          9.1980   39.3560    9.6100 N.am   39  SER39      -0.1949
     20  CA        10.2140   40.0080    8.8090 C.3    39  SER39       0.1924
     21  C         11.1980   40.8690    9.6450 C.2    39  SER39       0.2314
     22  O         11.8600   41.7460    9.0980 O.2    39  SER39      -0.2863
     23  CB         9.5750   40.8970    7.7130 C.3    39  SER39       0.2116
     24  OG         8.7260   40.0310    6.9800 O.3    39  SER39      -0.2180
     25  N          7.0090   44.5460   17.8540 N.3    75  ILE75      -0.1231
     26  CA         6.3530   43.4450   17.1190 C.3    75  ILE75       0.1692
     27  C          5.4860   42.6360   18.0590 C.2    75  ILE75       0.2593
     28  O          5.7650   42.5160   19.2660 O.2    75  ILE75      -0.2718
     29  CB         7.3820   42.5700   16.4320 C.3    75  ILE75       0.0266
     30  CG1        6.7570   41.6550   15.3900 C.3    75  ILE75       0.0019
     31  CG2        8.1960   41.7440   17.4190 C.3    75  ILE75       0.0020
     32  CD1        7.7530   41.1440   14.3730 C.3    75  ILE75       0.0001
     33  N          4.4060   42.0800   17.5060 N.am   76  SER76      -0.1938
     34  CA         3.6040   41.1060   18.2080 C.3    76  SER76       0.2055
     35  C          3.2520   39.9850   17.2130 C.2    76  SER76       0.2643
     36  O          3.1520   40.2160   16.0060 O.2    76  SER76      -0.2714
     37  CB         2.3560   41.6380   18.8430 C.3    76  SER76       0.2130
     38  OG         1.4800   42.2330   17.9200 O.3    76  SER76      -0.2179
     39  N          3.1240   38.7840   17.7280 N.am   77  TYR77      -0.1959
     40  CA         2.8830   37.6210   16.9090 C.3    77  TYR77       0.1771
     41  C          1.5020   37.0790   17.1870 C.2    77  TYR77       0.2620
     42  O          0.8200   37.4650   18.1290 O.2    77  TYR77      -0.2715
     43  CB         3.9900   36.6140   17.1910 C.3    77  TYR77       0.0574
     44  CG         5.3670   37.1030   16.8550 C.ar   77  TYR77      -0.0198
     45  CD1        6.2040   37.6170   17.8250 C.ar   77  TYR77      -0.0009
     46  CD2        5.8710   37.0510   15.5540 C.ar   77  TYR77      -0.0009
     47  CE1        7.4750   38.0880   17.5330 C.ar   77  TYR77       0.0417
     48  CE2        7.1360   37.5110   15.2620 C.ar   77  TYR77       0.0417
     49  CZ         7.9540   38.0200   16.2600 C.ar   77  TYR77       0.1957
     50  OH         9.2160   38.4670   16.0020 O.3    77  TYR77      -0.2866
     51  N          1.0710   36.1240   16.3530 N.am   78  GLY78      -0.1954
     52  CA        -0.2510   35.5530   16.4340 C.3    78  GLY78       0.1869
     53  C         -0.6140   34.9560   17.7710 C.2    78  GLY78       0.2309
     54  O         -1.8130   34.8940   18.1060 O.2    78  GLY78      -0.2863
     55  N          6.6970   43.7330    5.9240 N.3   131  LEU131     -0.1245
     56  CA         6.1770   43.4580    7.2620 C.3   131  LEU131      0.1561
     57  C          7.1400   43.8580    8.3690 C.2   131  LEU131      0.2260
     58  O          6.8190   43.7110    9.5560 O.2   131  LEU131     -0.2867
     59  CB         5.7680   41.9900    7.4470 C.3   131  LEU131      0.0270
     60  CG         4.6690   41.5140    6.5110 C.3   131  LEU131      0.0019
     61  CD1        4.3380   40.0720    6.8430 C.3   131  LEU131      0.0001
     62  CD2        3.4470   42.4460    6.5310 C.3   131  LEU131      0.0001
     63  N          9.0160   45.7660   11.2690 N.3   133  THR133     -0.1218
     64  CA         8.4030   46.7120   12.1760 C.3   133  THR133      0.1862
     65  C          9.2810   47.9190   12.5370 C.2   133  THR133      0.2287
     66  O          8.8750   48.7240   13.3740 O.2   133  THR133     -0.2866
     67  CB         7.8860   46.0830   13.4690 C.3   133  THR133      0.1770
     68  OG1        8.9510   45.7970   14.3920 O.3   133  THR133     -0.2211
     69  CG2        7.0340   44.8480   13.2070 C.3   133  THR133      0.0375
     70  N          3.2610   38.0740    3.1120 N.3   192  PHE192     -0.1241
     71  CA         3.6030   36.6890    3.4330 C.3   192  PHE192      0.1605
     72  C          3.9380   35.9180    2.1620 C.2   192  PHE192      0.2264
     73  O          3.6760   36.3410    1.0390 O.2   192  PHE192     -0.2867
     74  CB         2.3890   35.9890    4.1090 C.3   192  PHE192      0.0534
     75  CG         1.9330   36.5720    5.4070 C.ar  192  PHE192     -0.0203
     76  CD1        0.6320   37.0500    5.5260 C.ar  192  PHE192     -0.0042
     77  CD2        2.7750   36.6180    6.4980 C.ar  192  PHE192     -0.0042
     78  CE1        0.1800   37.5590    6.7500 C.ar  192  PHE192     -0.0003
     79  CE2        2.3560   37.1370    7.7100 C.ar  192  PHE192     -0.0003
     80  CZ         1.0610   37.6200    7.8340 C.ar  192  PHE192     -0.0000
     81  N          4.6510   29.0970    6.6230 N.3   217  ASP217     -0.1239
     82  CA         5.1020   29.7500    7.8530 C.3   217  ASP217      0.1674
     83  C          5.9250   28.8190    8.7400 C.2   217  ASP217      0.2266
     84  O          5.3760   28.0610    9.5560 O.2   217  ASP217     -0.2867
     85  CB         3.9390   30.3080    8.6560 C.3   217  ASP217      0.1410
     86  CG         4.3600   31.1200    9.8170 C.2   217  ASP217      0.3668
     87  OD1        3.4710   31.5930   10.5510 O.co2 217  ASP217     -0.2456
     88  OD2        5.5670   31.2960   10.0380 O.co2 217  ASP217     -0.2456
@<TRIPOS>BOND
     1    73    72    2
     2    72    71    1
     3    70    71    1
     4    71    74    1
     5    74    75    1
     6    75    76   ar
     7    75    77   ar
     8    76    78   ar
     9    55    56    1
    10    77    79   ar
    11    60    62    1
    12    60    61    1
    13    60    59    1
    14    81    82    1
    15    78    80   ar
    16    24    23    1
    17    56    59    1
    18    56    57    1
    19    79    80   ar
    20    23    20    1
    21    82    85    1
    22    82    83    1
    23    57    58    2
    24     9    10    1
    25    16    15    2
    26    85    86    1
    27    10    11    1
    28    83    84    2
    29    20    19    1
    30    20    21    1
    31    22    21    2
    32     4     3    2
    33    11    13   am
    34    11    12    2
    35    15    19   am
    36    15    14    1
    37     3     2    1
    38    13    14    1
    39    86    88   ar
    40    86    87   ar
    41    14    17    1
    42     2     1    1
    43     2     5    1
    44     7     6   ar
    45    63    64    1
    46    17    18    1
    47     5     6    1
    48     6     8   ar
    49    64    65    1
    50    64    67    1
    51    65    66    2
    52    69    67    1
    53    67    68    1
    54    32    30    1
    55    48    46   ar
    56    48    49   ar
    57    30    29    1
    58    46    44   ar
    59    50    49    1
    60    36    35    2
    61    49    47   ar
    62    51    52    1
    63    51    41   am
    64    29    26    1
    65    29    31    1
    66    52    53    1
    67    44    43    1
    68    44    45   ar
    69    40    41    1
    70    40    43    1
    71    40    39    1
    72    26    25    1
    73    26    27    1
    74    41    42    2
    75    35    39   am
    76    35    34    1
    77    33    27   am
    78    33    34    1
    79    47    45   ar
    80    53    54    2
    81    38    37    1
    82    27    28    2
    83    34    37    1
