@<TRIPOS>MOLECULE
tmp/1of0A00.pdb
 150 144 0 0 0
SMALL
GASTEIGER

@<TRIPOS>ATOM
      1  N         -5.7850   35.3880   35.3290 N.3   218  PRO218     -0.2102
      2  CA        -4.8150   35.7920   36.3520 C.3   218  PRO218      0.1504
      3  C         -3.3780   35.3420   36.1130 C.2   218  PRO218      0.2575
      4  O         -2.4570   35.8130   36.7820 O.2   218  PRO218     -0.2718
      5  CB        -5.4050   35.2070   37.6360 C.3   218  PRO218      0.0282
      6  CG        -6.1140   33.9780   37.1510 C.3   218  PRO218      0.0208
      7  CD        -6.7900   34.4640   35.8870 C.3   218  PRO218      0.0893
      8  N         -3.1780   34.4430   35.1560 N.am  219  ALA219     -0.1980
      9  CA        -1.8340   33.9540   34.8790 C.3   219  ALA219      0.1597
     10  C         -1.7820   33.1860   33.5720 C.2   219  ALA219      0.2287
     11  O         -2.7970   32.6760   33.0980 O.2   219  ALA219     -0.2864
     12  CB        -1.3580   33.0610   36.0300 C.3   219  ALA219      0.0319
     13  N          0.6000   30.2230   31.3550 N.3   221  CYS221     -0.1235
     14  CA         1.7130   29.2870   31.2680 C.3   221  CYS221      0.1677
     15  C          1.7040   28.6350   29.8900 C.2   221  CYS221      0.2270
     16  O          0.7690   27.9110   29.5470 O.2   221  CYS221     -0.2867
     17  CB         1.5970   28.2030   32.3390 C.3   221  CYS221      0.0956
     18  SG         1.6760   28.7610   34.0740 S.3   221  CYS221     -0.0801
     19  N          4.1340   35.4020   32.5240 N.3   252  THR252     -0.1203
     20  CA         4.0030   34.9310   33.9060 C.3   252  THR252      0.1994
     21  C          5.1140   34.0250   34.4220 C.2   252  THR252      0.2618
     22  O          5.6620   34.2430   35.5020 O.2   252  THR252     -0.2717
     23  CB         2.7000   34.1370   34.0840 C.3   252  THR252      0.1784
     24  OG1        1.5790   34.9760   33.7800 O.3   252  THR252     -0.2211
     25  CG2        2.5840   33.6100   35.5080 C.3   252  THR252      0.0376
     26  N          5.4120   32.9930   33.6430 N.am  253  ARG253     -0.1965
     27  CA         6.4020   31.9850   33.9970 C.3   253  ARG253      0.1729
     28  C          7.7280   32.4130   34.5990 C.2   253  ARG253      0.2616
     29  O          8.4050   33.3200   34.1090 O.2   253  ARG253     -0.2715
     30  CB         6.6910   31.1020   32.7840 C.3   253  ARG253      0.0348
     31  CG         7.5810   29.8950   33.0860 C.3   253  ARG253      0.0492
     32  CD         7.8260   29.0830   31.8250 C.3   253  ARG253      0.2205
     33  NE         6.6090   28.4510   31.3230 N.pl3 253  ARG253     -0.0865
     34  CZ         6.2220   27.2190   31.6430 C.cat 253  ARG253      0.5346
     35  NH1        6.9580   26.4810   32.4680 N.pl3 253  ARG253      0.1354
     36  NH2        5.1050   26.7210   31.1260 N.pl3 253  ARG253      0.1354
     37  N          8.0900   31.7200   35.6710 N.am  254  THR254     -0.1951
     38  CA         9.3540   31.9260   36.3570 C.3   254  THR254      0.1897
     39  C         10.1800   30.6760   36.0600 C.2   254  THR254      0.2313
     40  O          9.6540   29.5670   36.0750 O.2   254  THR254     -0.2863
     41  CB         9.1610   32.0570   37.8770 C.3   254  THR254      0.1794
     42  OG1        8.6510   33.3620   38.1820 O.3   254  THR254     -0.2208
     43  CG2       10.4860   31.8350   38.6080 C.3   254  THR254      0.0378
     44  N          7.9300   25.0250   38.1980 N.3   313  GLY313     -0.1210
     45  CA         6.6790   24.7190   37.5350 C.3   313  GLY313      0.1956
     46  C          5.8590   25.9730   37.2860 C.2   313  GLY313      0.2612
     47  O          6.1170   27.0300   37.8630 O.2   313  GLY313     -0.2717
     48  N          4.8690   25.8560   36.4120 N.am  314  CYS314     -0.1956
     49  CA         3.9990   26.9740   36.0910 C.3   314  CYS314      0.1843
     50  C          2.6080   26.3880   35.9820 C.2   314  CYS314      0.2626
     51  O          2.2620   25.7740   34.9730 O.2   314  CYS314     -0.2714
     52  CB         4.4140   27.6090   34.7630 C.3   314  CYS314      0.0997
     53  SG         3.6370   29.2100   34.3590 S.3   314  CYS314     -0.0797
     54  N          1.8170   26.5740   37.0310 N.am  315  GLY315     -0.1954
     55  CA         0.4720   26.0340   37.0380 C.3   315  GLY315      0.1869
     56  C          0.5240   24.5210   37.1340 C.2   315  GLY315      0.2309
     57  O         -0.4040   23.8360   36.7140 O.2   315  GLY315     -0.2863
     58  N         -2.1920   42.9510   47.7080 N.3   367  ALA367     -0.1245
     59  CA        -3.5250   42.4190   47.9680 C.3   367  ALA367      0.1562
     60  C         -4.3860   42.3160   46.7210 C.2   367  ALA367      0.2260
     61  O         -3.9270   41.8950   45.6640 O.2   367  ALA367     -0.2867
     62  CB        -4.2290   43.2830   49.0110 C.3   367  ALA367      0.0290
     63  N         -8.9580   42.6110   45.3620 N.3   369  THR369     -0.1203
     64  CA       -10.3560   42.4280   45.7070 C.3   369  THR369      0.1994
     65  C        -10.9530   41.4830   44.6670 C.2   369  THR369      0.2617
     66  O        -10.2290   40.6990   44.0560 O.2   369  THR369     -0.2717
     67  CB       -11.0960   43.7960   45.7080 C.3   369  THR369      0.1784
     68  OG1      -12.4440   43.6220   46.1570 O.3   369  THR369     -0.2211
     69  CG2      -11.1030   44.4060   44.3150 C.3   369  THR369      0.0376
     70  N        -12.2630   41.5540   44.4620 N.am  370  GLN370     -0.1979
     71  CA       -12.9310   40.6960   43.4910 C.3   370  GLN370      0.1601
     72  C        -13.9730   41.5370   42.7560 C.2   370  GLN370      0.2287
     73  O        -14.7540   42.2490   43.3890 O.2   370  GLN370     -0.2864
     74  CB       -13.6010   39.5250   44.2200 C.3   370  GLN370      0.0394
     75  CG       -14.2620   38.4850   43.3150 C.3   370  GLN370      0.0908
     76  CD       -15.0640   37.4440   44.0990 C.2   370  GLN370      0.2608
     77  OE1      -16.1320   37.7410   44.6430 O.2   370  GLN370     -0.2717
     78  NE2      -14.5440   36.2210   44.1640 N.am  370  GLN370     -0.0878
     79  N        -10.4870   37.7630   40.2320 N.3   376  PRO376     -0.2116
     80  CA        -9.6180   38.4350   41.1960 C.3   376  PRO376      0.1372
     81  C         -9.0200   39.6940   40.5650 C.2   376  PRO376      0.2244
     82  O         -8.6710   39.6920   39.3850 O.2   376  PRO376     -0.2868
     83  CB        -8.5660   37.3800   41.4920 C.3   376  PRO376      0.0268
     84  CG        -8.4280   36.6820   40.1670 C.3   376  PRO376      0.0207
     85  CD        -9.8580   36.5350   39.7080 C.3   376  PRO376      0.0892
     86  N         -5.9650   42.1260   41.3360 N.3   378  LEU378     -0.1245
     87  CA        -4.7950   42.3740   42.1730 C.3   378  LEU378      0.1561
     88  C         -4.4630   43.8540   42.2960 C.2   378  LEU378      0.2260
     89  O         -4.3380   44.5630   41.2970 O.2   378  LEU378     -0.2867
     90  CB        -3.5970   41.5830   41.6380 C.3   378  LEU378      0.0270
     91  CG        -3.8710   40.0720   41.6630 C.3   378  LEU378      0.0019
     92  CD1       -2.6620   39.2940   41.1850 C.3   378  LEU378      0.0001
     93  CD2       -4.2290   39.6550   43.0830 C.3   378  LEU378      0.0001
     94  N         -0.1790   37.0470   50.0780 N.3   407  THR407     -0.1203
     95  CA        -0.7360   36.1630   49.0630 C.3   407  THR407      0.1994
     96  C          0.0540   34.8650   49.0730 C.2   407  THR407      0.2618
     97  O          1.1360   34.7950   49.6550 O.2   407  THR407     -0.2717
     98  CB        -0.6760   36.7860   47.6440 C.3   407  THR407      0.1784
     99  OG1        0.6810   36.8300   47.1840 O.3   407  THR407     -0.2211
    100  CG2       -1.2530   38.1990   47.6610 C.3   407  THR407      0.0376
    101  N         -0.4830   33.8420   48.4220 N.am  408  ARG408     -0.1965
    102  CA         0.1690   32.5410   48.3890 C.3   408  ARG408      0.1729
    103  C          1.1570   32.3560   47.2370 C.2   408  ARG408      0.2617
    104  O          1.6330   31.2470   47.0030 O.2   408  ARG408     -0.2715
    105  CB        -0.8940   31.4430   48.3350 C.3   408  ARG408      0.0348
    106  CG        -1.7810   31.5130   47.1070 C.3   408  ARG408      0.0492
    107  CD        -2.8360   30.4120   47.1090 C.3   408  ARG408      0.2205
    108  NE        -3.8180   30.5880   48.1780 N.pl3 408  ARG408     -0.0865
    109  CZ        -4.8970   29.8260   48.3350 C.cat 408  ARG408      0.5346
    110  NH1       -5.1370   28.8270   47.4910 N.pl3 408  ARG408      0.1354
    111  NH2       -5.7390   30.0640   49.3340 N.pl3 408  ARG408      0.1354
    112  N          1.4710   33.4340   46.5240 N.am  409  GLY409     -0.1940
    113  CA         2.4070   33.3280   45.4180 C.3   409  GLY409      0.2014
    114  C          3.4370   34.4420   45.3780 C.2   409  GLY409      0.2640
    115  O          3.2490   35.4920   45.9930 O.2   409  GLY409     -0.2714
    116  N          4.5340   34.2150   44.6620 N.am  410  THR410     -0.1936
    117  CA         5.5810   35.2220   44.5450 C.3   410  THR410      0.2028
    118  C          5.2160   36.2820   43.5090 C.2   410  THR410      0.2642
    119  O          4.5530   35.9920   42.5110 O.2   410  THR410     -0.2714
    120  CB         6.9350   34.5880   44.1660 C.3   410  THR410      0.1808
    121  OG1        7.4300   33.8400   45.2800 O.3   410  THR410     -0.2208
    122  CG2        7.9580   35.6650   43.8050 C.3   410  THR410      0.0379
    123  N          5.6470   37.5140   43.7700 N.am  411  HIS411     -0.1973
    124  CA         5.3800   38.6370   42.8830 C.3   411  HIS411      0.1656
    125  C          6.6630   39.3680   42.5200 C.2   411  HIS411      0.2291
    126  O          7.3730   39.8630   43.3950 O.2   411  HIS411     -0.2864
    127  CB         4.4290   39.6260   43.5530 C.3   411  HIS411      0.0771
    128  CG         3.0300   39.1190   43.6940 C.ar  411  HIS411      0.0820
    129  ND1        2.1270   39.1350   42.6550 N.ar  411  HIS411     -0.2267
    130  CD2        2.3770   38.5810   44.7520 C.ar  411  HIS411      0.1154
    131  CE1        0.9760   38.6330   43.0660 C.ar  411  HIS411      0.1986
    132  NE2        1.1020   38.2880   44.3340 N.ar  411  HIS411     -0.2212
    133  N          4.1800   40.5250   36.4250 N.3   486  ILE486     -0.1245
    134  CA         3.4600   39.3940   35.8800 C.3   486  ILE486      0.1561
    135  C          2.3810   40.1510   35.1120 C.2   486  ILE486      0.2260
    136  O          1.4180   40.6430   35.6920 O.2   486  ILE486     -0.2867
    137  CB         2.8450   38.5210   36.9860 C.3   486  ILE486      0.0252
    138  CG1        3.9400   37.6520   37.6160 C.3   486  ILE486      0.0019
    139  CG2        1.7220   37.6650   36.4100 C.3   486  ILE486      0.0019
    140  CD1        3.4620   36.7600   38.7380 C.3   486  ILE486      0.0001
    141  N         -1.1830   40.2360   35.8080 N.3   489  HIS489     -0.1241
    142  CA        -1.5170   40.9720   37.0270 C.3   489  HIS489      0.1621
    143  C         -1.4640   42.4620   36.7590 C.2   489  HIS489      0.2264
    144  O         -2.3660   43.2040   37.1310 O.2   489  HIS489     -0.2867
    145  CB        -0.5300   40.6530   38.1520 C.3   489  HIS489      0.0745
    146  CG        -0.5970   39.2410   38.6340 C.ar  489  HIS489      0.0817
    147  ND1        0.2320   38.7570   39.6200 N.ar  489  HIS489     -0.2268
    148  CD2       -1.3820   38.2050   38.2580 C.ar  489  HIS489      0.1154
    149  CE1       -0.0360   37.4820   39.8300 C.ar  489  HIS489      0.1986
    150  NE2       -1.0120   37.1220   39.0160 N.ar  489  HIS489     -0.2212
@<TRIPOS>BOND
     1    16    15    2
     2    15    14    1
     3    36    34    1
     4    14    13    1
     5    14    17    1
     6    33    34    2
     7    33    32    1
     8    34    35    1
     9    32    31    1
    10    17    18    1
    11    19    20    1
    12    30    31    1
    13    30    27    1
    14    11    10    2
    15    10     9    1
    16    26    27    1
    17    26    21   am
    18    24    23    1
    19    20    23    1
    20    20    21    1
    21    27    28    1
    22    18    53    1
    23    23    25    1
    24    29    28    2
    25    53    52    1
    26    21    22    2
    27    28    37   am
    28    52    49    1
    29     9     8    1
    30     9    12    1
    31    51    50    2
    32   135   136    2
    33   135   134    1
    34     8     3   am
    35     1     7    1
    36     1     2    1
    37    37    38    1
    38   141   142    1
    39   134   133    1
    40   134   137    1
    41     7     6    1
    42    50    49    1
    43    50    54   am
    44    39    40    2
    45    39    38    1
    46    49    48    1
    47     3     2    1
    48     3     4    2
    49     2     5    1
    50    38    41    1
    51   139   137    1
    52    48    46   am
    53    57    56    2
    54   143   142    1
    55   143   144    2
    56   137   138    1
    57   142   145    1
    58    54    55    1
    59    55    56    1
    60     6     5    1
    61    46    45    1
    62    46    47    2
    63    45    44    1
    64   138   140    1
    65    41    42    1
    66    41    43    1
    67   145   146    1
    68   148   146   ar
    69   148   150   ar
    70   146   147   ar
    71   150   149   ar
    72    82    81    2
    73   147   149   ar
    74    85    84    1
    75    85    79    1
    76    84    83    1
    77    79    80    1
    78    81    80    1
    79    92    91    1
    80    80    83    1
    81    89    88    2
    82    86    87    1
    83    90    91    1
    84    90    87    1
    85    91    93    1
    86    87    88    1
    87   119   118    2
    88   125   124    1
    89   125   126    2
    90   129   131   ar
    91   129   128   ar
    92    72    73    2
    93    72    71    1
    94   124   127    1
    95   124   123    1
    96   131   132   ar
    97    75    76    1
    98    75    74    1
    99    71    74    1
   100    71    70    1
   101   118   123   am
   102   118   117    1
   103   127   128    1
   104   128   130   ar
   105   122   120    1
   106    66    65    2
   107    76    78   am
   108    76    77    2
   109   120   117    1
   110   120   121    1
   111    69    67    1
   112   132   130   ar
   113    70    65   am
   114   117   116    1
   115   116   114   am
   116    65    64    1
   117    63    64    1
   118   114   113    1
   119   114   115    2
   120   113   112    1
   121    61    60    2
   122    64    67    1
   123    67    68    1
   124   112   103   am
   125    60    59    1
   126   104   103    2
   127   106   107    1
   128   106   105    1
   129   107   108    1
   130    99    98    1
   131   103   102    1
   132   110   109    1
   133    98   100    1
   134    98    95    1
   135    58    59    1
   136    59    62    1
   137   108   109    2
   138   105   102    1
   139   109   111    1
   140   102   101    1
   141   101    96   am
   142    95    96    1
   143    95    94    1
   144    96    97    2
