@<TRIPOS>MOLECULE
tmp/1of1A00.pdb
 154 146 0 0 0
SMALL
GASTEIGER

@<TRIPOS>ATOM
      1  N         49.5820   39.1950   -3.6400 N.3    13  HIS13      -0.1241
      2  CA        50.7870   38.5880   -3.0770 C.3    13  HIS13       0.1621
      3  C         51.8910   38.7470   -4.1210 C.2    13  HIS13       0.2264
      4  O         51.6100   38.9220   -5.3230 O.2    13  HIS13      -0.2867
      5  CB        50.5880   37.0920   -2.8060 C.3    13  HIS13       0.0745
      6  CG        50.0510   36.3170   -3.9740 C.ar   13  HIS13       0.0817
      7  ND1       48.7280   36.3580   -4.3530 N.ar   13  HIS13      -0.2268
      8  CD2       50.6580   35.4610   -4.8320 C.ar   13  HIS13       0.1154
      9  CE1       48.5380   35.5610   -5.3890 C.ar   13  HIS13       0.1986
     10  NE2       49.6950   35.0040   -5.7010 N.ar   13  HIS13      -0.2212
     11  N         52.3590   37.9050    8.7590 N.3    34  GLU34      -0.1245
     12  CA        51.6370   36.8940    8.0030 C.3    34  GLU34       0.1567
     13  C         51.5840   35.6650    8.9190 C.2    34  GLU34       0.2260
     14  O         52.6210   35.2190    9.3910 O.2    34  GLU34      -0.2867
     15  CB        52.4480   36.5610    6.7650 C.3    34  GLU34       0.0388
     16  CG        51.8270   35.5510    5.8590 C.3    34  GLU34       0.1160
     17  CD        52.5560   35.4810    4.5410 C.2    34  GLU34       0.3649
     18  OE1       53.6260   34.8400    4.4820 O.co2  34  GLU34      -0.2457
     19  OE2       52.0530   36.0890    3.5730 O.co2  34  GLU34      -0.2457
     20  N         48.6530   28.7470    8.8390 N.3    39  TRP39      -0.1241
     21  CA        48.3290   28.1900    7.5300 C.3    39  TRP39       0.1605
     22  C         48.9480   26.8230    7.2380 C.2    39  TRP39       0.2264
     23  O         48.2940   25.9500    6.6560 O.2    39  TRP39      -0.2867
     24  CB        48.7590   29.1520    6.4170 C.3    39  TRP39       0.0550
     25  CG        48.0510   30.4900    6.4540 C.ar   39  TRP39       0.0003
     26  CD1       46.8470   30.7720    7.0360 C.ar   39  TRP39       0.0946
     27  CD2       48.4810   31.6910    5.8140 C.ar   39  TRP39       0.0152
     28  NE1       46.4940   32.0880    6.7920 N.ar   39  TRP39      -0.2442
     29  CE2       47.4830   32.6730    6.0430 C.ar   39  TRP39       0.0810
     30  CE3       49.6110   32.0360    5.0580 C.ar   39  TRP39       0.0012
     31  CZ2       47.5880   33.9770    5.5440 C.ar   39  TRP39       0.0191
     32  CZ3       49.7120   33.3420    4.5590 C.ar   39  TRP39       0.0001
     33  CH2       48.7060   34.2900    4.8040 C.ar   39  TRP39       0.0015
     34  N         48.4250   26.3920    1.9680 N.3    48  ILE48      -0.1245
     35  CA        48.8070   27.0390    0.7240 C.3    48  ILE48       0.1561
     36  C         49.0150   25.9960   -0.3700 C.2    48  ILE48       0.2260
     37  O         48.5180   26.1580   -1.4940 O.2    48  ILE48      -0.2867
     38  CB        50.0720   27.8950    0.9090 C.3    48  ILE48       0.0252
     39  CG1       49.7440   29.1120    1.7840 C.3    48  ILE48       0.0019
     40  CG2       50.6160   28.3590   -0.4440 C.3    48  ILE48       0.0019
     41  CD1       50.9470   30.0270    2.0440 C.3    48  ILE48       0.0001
     42  N         45.7490   24.7690   -1.5990 N.3    51  ILE51      -0.1231
     43  CA        45.0980   25.7130   -2.5090 C.3    51  ILE51       0.1692
     44  C         45.6640   25.6390   -3.9420 C.2    51  ILE51       0.2592
     45  O         44.9140   25.4860   -4.9090 O.2    51  ILE51      -0.2718
     46  CB        45.2390   27.1660   -1.9690 C.3    51  ILE51       0.0266
     47  CG1       44.3130   27.3430   -0.7480 C.3    51  ILE51       0.0019
     48  CG2       44.9000   28.1870   -3.0710 C.3    51  ILE51       0.0020
     49  CD1       44.5380   28.6520    0.0100 C.3    51  ILE51       0.0001
     50  N         46.9800   25.7350   -4.0860 N.am   52  TYR52      -0.1976
     51  CA        47.5370   25.7160   -5.4290 C.3    52  TYR52       0.1639
     52  C         47.4410   24.3470   -6.1090 C.2    52  TYR52       0.2290
     53  O         47.2330   24.2620   -7.3300 O.2    52  TYR52      -0.2864
     54  CB        48.9740   26.2460   -5.4180 C.3    52  TYR52       0.0560
     55  CG        49.0470   27.7530   -5.2110 C.ar   52  TYR52      -0.0198
     56  CD1       49.1310   28.3110   -3.9290 C.ar   52  TYR52      -0.0009
     57  CD2       48.9840   28.6280   -6.3050 C.ar   52  TYR52      -0.0009
     58  CE1       49.1510   29.7190   -3.7480 C.ar   52  TYR52       0.0417
     59  CE2       49.0020   30.0180   -6.1330 C.ar   52  TYR52       0.0417
     60  CZ        49.0840   30.5570   -4.8610 C.ar   52  TYR52       0.1957
     61  OH        49.0880   31.9310   -4.7210 O.3    52  TYR52      -0.2866
     62  N         39.7920   28.7170    2.4110 N.3    76  GLN76      -0.1245
     63  CA        39.7600   30.1550    2.6770 C.3    76  GLN76       0.1566
     64  C         39.3480   30.4550    4.1120 C.2    76  GLN76       0.2260
     65  O         39.7490   31.4650    4.6770 O.2    76  GLN76      -0.2867
     66  CB        38.8420   30.8620    1.6720 C.3    76  GLN76       0.0367
     67  CG        39.5630   31.1070    0.3250 C.3    76  GLN76       0.0905
     68  CD        40.7500   32.0380    0.4720 C.2    76  GLN76       0.2608
     69  OE1       41.8170   31.7940   -0.0970 O.2    76  GLN76      -0.2717
     70  NE2       40.5730   33.1230    1.2410 N.am   76  GLN76      -0.0878
     71  N         42.4830   30.1230    6.0030 N.3    79  MET79      -0.1245
     72  CA        43.3520   31.2570    5.7090 C.3    79  MET79       0.1570
     73  C         42.9660   32.5270    6.4840 C.2    79  MET79       0.2261
     74  O         43.8340   33.2600    6.9680 O.2    79  MET79      -0.2867
     75  CB        43.3380   31.5710    4.2020 C.3    79  MET79       0.0387
     76  CG        43.8980   30.4640    3.2890 C.3    79  MET79       0.0595
     77  SD        45.6300   30.0910    3.6040 S.3    79  MET79      -0.1393
     78  CE        46.3580   31.5970    3.0130 C.3    79  MET79       0.0692
     79  N         43.0510   36.5520   10.9720 N.3    83  TYR83      -0.1241
     80  CA        42.6150   37.9410   10.7780 C.3    83  TYR83       0.1605
     81  C         41.3020   38.1840   11.4600 C.2    83  TYR83       0.2264
     82  O         41.0930   39.2220   12.0680 O.2    83  TYR83      -0.2867
     83  CB        42.4000   38.2650    9.3030 C.3    83  TYR83       0.0534
     84  CG        43.5440   37.8810    8.4060 C.ar   83  TYR83      -0.0201
     85  CD1       44.8700   38.1860    8.7410 C.ar   83  TYR83      -0.0009
     86  CD2       43.2950   37.2650    7.1900 C.ar   83  TYR83      -0.0009
     87  CE1       45.9230   37.8840    7.8640 C.ar   83  TYR83       0.0417
     88  CE2       44.3330   36.9650    6.3100 C.ar   83  TYR83       0.0417
     89  CZ        45.6360   37.2760    6.6460 C.ar   83  TYR83       0.1957
     90  OH        46.6340   37.0100    5.7350 O.3    83  TYR83      -0.2866
     91  N         48.0620   42.4000    6.0060 N.3   109  ARG109     -0.1245
     92  CA        46.7010   42.1610    5.5260 C.3   109  ARG109      0.1563
     93  C         45.5380   42.4490    6.4790 C.2   109  ARG109      0.2260
     94  O         45.6760   42.4170    7.7000 O.2   109  ARG109     -0.2867
     95  CB        46.5500   40.7350    4.9960 C.3   109  ARG109      0.0307
     96  CG        47.4860   40.4140    3.8410 C.3   109  ARG109      0.0489
     97  CD        47.0620   39.1280    3.1760 C.3   109  ARG109      0.2205
     98  NE        47.9480   38.8010    2.0590 N.pl3 109  ARG109     -0.0865
     99  CZ        47.8060   39.2760    0.8270 C.cat 109  ARG109      0.5346
    100  NH1       46.8020   40.0980    0.5490 N.pl3 109  ARG109      0.1354
    101  NH2       48.6750   38.9360   -0.1210 N.pl3 109  ARG109      0.1354
    102  N         41.0380   40.5290    2.8430 N.3   113  ALA113     -0.1231
    103  CA        41.8540   39.7390    1.9020 C.3   113  ALA113      0.1694
    104  C         41.3040   38.3190    1.8110 C.2   113  ALA113      0.2591
    105  O         41.1410   37.7560    0.7170 O.2   113  ALA113     -0.2718
    106  CB        43.3040   39.6860    2.3680 C.3   113  ALA113      0.0304
    107  N         41.0060   37.7360    2.9700 N.am  114  ALA114     -0.1980
    108  CA        40.5240   36.3630    3.0100 C.3   114  ALA114      0.1597
    109  C         39.0210   36.1990    2.8940 C.2   114  ALA114      0.2287
    110  O         38.5650   35.1230    2.5220 O.2   114  ALA114     -0.2864
    111  CB        41.0340   35.6580    4.3130 C.3   114  ALA114      0.0319
    112  N         40.6320   37.2600   -2.0520 N.3   118  TYR118     -0.1241
    113  CA        41.0570   35.9670   -2.5670 C.3   118  TYR118      0.1605
    114  C         39.8380   35.1260   -2.9890 C.2   118  TYR118      0.2264
    115  O         39.8970   34.4010   -3.9960 O.2   118  TYR118     -0.2867
    116  CB        42.0080   35.2620   -1.5650 C.3   118  TYR118      0.0534
    117  CG        43.4180   35.7900   -1.7510 C.ar  118  TYR118     -0.0201
    118  CD1       43.8300   36.9870   -1.1310 C.ar  118  TYR118     -0.0009
    119  CD2       44.3060   35.1680   -2.6370 C.ar  118  TYR118     -0.0009
    120  CE1       45.0760   37.5470   -1.3980 C.ar  118  TYR118      0.0417
    121  CE2       45.5730   35.7280   -2.9130 C.ar  118  TYR118      0.0417
    122  CZ        45.9380   36.9210   -2.2890 C.ar  118  TYR118      0.1957
    123  OH        47.1300   37.5330   -2.5820 O.3   118  TYR118     -0.2866
    124  N         39.4500   33.6130   -6.7260 N.3   122  ARG122     -0.1245
    125  CA        39.2280   32.1960   -7.0230 C.3   122  ARG122      0.1563
    126  C         37.9330   32.0070   -7.8230 C.2   122  ARG122      0.2260
    127  O         37.8350   31.1180   -8.6830 O.2   122  ARG122     -0.2867
    128  CB        39.2460   31.3640   -5.7280 C.3   122  ARG122      0.0307
    129  CG        40.6890   31.2870   -5.1050 C.3   122  ARG122      0.0489
    130  CD        41.6720   30.4970   -6.0360 C.3   122  ARG122      0.2205
    131  NE        43.0670   30.5890   -5.5790 N.pl3 122  ARG122     -0.0865
    132  CZ        44.1220   30.1350   -6.2630 C.cat 122  ARG122      0.5346
    133  NH1       43.9590   29.5420   -7.4430 N.pl3 122  ARG122      0.1354
    134  NH2       45.3480   30.2890   -5.7710 N.pl3 122  ARG122      0.1354
    135  N         55.5490   31.2470   -1.6400 N.3   168  ARG168     -0.1245
    136  CA        55.4030   30.6810   -0.3040 C.3   168  ARG168      0.1563
    137  C         55.5060   29.1570   -0.3890 C.2   168  ARG168      0.2260
    138  O         55.4180   28.5900   -1.4690 O.2   168  ARG168     -0.2867
    139  CB        54.0490   31.0920    0.2820 C.3   168  ARG168      0.0307
    140  CG        53.8320   32.6150    0.3940 C.3   168  ARG168      0.0489
    141  CD        54.8850   33.2900    1.2510 C.3   168  ARG168      0.2205
    142  NE        54.4360   34.5860    1.7670 N.pl3 168  ARG168     -0.0865
    143  CZ        54.4660   35.7370    1.1000 C.cat 168  ARG168      0.5346
    144  NH1       54.9290   35.7910   -0.1430 N.pl3 168  ARG168      0.1354
    145  NH2       54.0440   36.8530    1.6880 N.pl3 168  ARG168      0.1354
    146  N         53.3450   27.0060   -2.8240 N.3   171  GLU171     -0.1245
    147  CA        52.8220   27.8580   -3.8870 C.3   171  GLU171      0.1567
    148  C         53.2930   27.4330   -5.2810 C.2   171  GLU171      0.2260
    149  O         54.4140   26.9430   -5.4430 O.2   171  GLU171     -0.2867
    150  CB        53.2340   29.3160   -3.6350 C.3   171  GLU171      0.0388
    151  CG        52.6740   30.2940   -4.6660 C.3   171  GLU171      0.1160
    152  CD        52.8500   31.7620   -4.2830 C.2   171  GLU171      0.3649
    153  OE1       53.0310   32.0590   -3.0830 O.co2 171  GLU171     -0.2457
    154  OE2       52.7830   32.6220   -5.1920 O.co2 171  GLU171     -0.2457
@<TRIPOS>BOND
     1   127   126    2
     2   126   125    1
     3   133   132    1
     4    53    52    2
     5   125   124    1
     6   125   128    1
     7    57    59   ar
     8    57    55   ar
     9   132   134    1
    10   132   131    2
    11    59    60   ar
    12    52    51    1
    13   130   131    1
    14   130   129    1
    15   128   129    1
    16    10     9   ar
    17    10     8   ar
    18   149   148    2
    19    51    54    1
    20    51    50    1
    21    54    55    1
    22     9     7   ar
    23     4     3    2
    24   148   147    1
    25    55    56   ar
    26   154   152   ar
    27    45    44    2
    28    60    61    1
    29    60    58   ar
    30     8     6   ar
    31   151   152    1
    32   151   150    1
    33     7     6   ar
    34   152   153   ar
    35     3     2    1
    36    50    44   am
    37   115   114    2
    38     6     5    1
    39    44    43    1
    40    56    58   ar
    41   147   150    1
    42   147   146    1
    43     1     2    1
    44     2     5    1
    45    48    46    1
    46   114   113    1
    47   121   119   ar
    48   121   122   ar
    49   119   117   ar
    50   123   122    1
    51   113   112    1
    52   113   116    1
    53    43    46    1
    54    43    42    1
    55   122   120   ar
    56    46    47    1
    57   117   116    1
    58   117   118   ar
    59   135   136    1
    60    37    36    2
    61   138   137    2
    62   120   118   ar
    63    47    49    1
    64    40    38    1
    65   137   136    1
    66    36    35    1
    67   136   139    1
    68   144   143    1
    69   101    99    1
    70    69    68    2
    71   139   140    1
    72    67    68    1
    73    67    66    1
    74   140   141    1
    75    68    70   am
    76   100    99    1
    77   105   104    2
    78    35    38    1
    79    35    34    1
    80    99    98    2
    81    38    39    1
    82   143   145    1
    83   143   142    2
    84   141   142    1
    85    66    63    1
    86    39    41    1
    87   104   103    1
    88   104   107   am
    89   103   106    1
    90   103   102    1
    91    98    97    1
    92    62    63    1
    93   110   109    2
    94    63    64    1
    95   109   108    1
    96   107   108    1
    97   108   111    1
    98    78    77    1
    99    97    96    1
   100    76    77    1
   101    76    75    1
   102    19    17   ar
   103    96    95    1
   104    64    65    2
   105    75    72    1
   106    18    17   ar
   107    17    16    1
   108    32    33   ar
   109    32    30   ar
   110    33    31   ar
   111    95    92    1
   112    30    27   ar
   113    92    91    1
   114    92    93    1
   115    31    29   ar
   116    72    71    1
   117    72    73    1
   118    90    89    1
   119    27    29   ar
   120    27    25   ar
   121    16    15    1
   122    29    28   ar
   123    88    89   ar
   124    88    86   ar
   125    24    25    1
   126    24    21    1
   127    25    26   ar
   128    93    94    2
   129    73    74    2
   130    89    87   ar
   131    23    22    2
   132    15    12    1
   133    28    26   ar
   134    86    84   ar
   135    22    21    1
   136    21    20    1
   137    87    85   ar
   138    12    11    1
   139    12    13    1
   140    84    85   ar
   141    84    83    1
   142    13    14    2
   143    83    80    1
   144    80    79    1
   145    80    81    1
   146    81    82    2
