@<TRIPOS>MOLECULE
tmp/1of4A00.pdb
 153 150 0 0 0
SMALL
GASTEIGER

@<TRIPOS>ATOM
      1  N          0.0900   20.7430    4.8780 N.3    23  SER23      -0.1202
      2  CA         0.3520   21.4260    3.6190 C.3    23  SER23       0.2020
      3  C          1.1480   20.5910    2.6250 C.2    23  SER23       0.2619
      4  O          1.4560   21.0900    1.5640 O.2    23  SER23      -0.2717
      5  CB         0.9080   22.8090    3.8500 C.3    23  SER23       0.2103
      6  OG         2.2450   22.7510    4.1510 O.3    23  SER23      -0.2182
      7  N          1.4760   19.3680    2.9830 N.am   24  GLY24      -0.1942
      8  CA         2.0580   18.3920    2.0580 C.3    24  GLY24       0.2014
      9  C          3.2470   17.6530    2.5710 C.2    24  GLY24       0.2640
     10  O          3.6600   17.8390    3.7130 O.2    24  GLY24      -0.2714
     11  N          3.8320   16.8370    1.6880 N.am   25  THR25      -0.1936
     12  CA         4.9850   16.0190    2.0130 C.3    25  THR25       0.2028
     13  C          5.9300   16.0180    0.8020 C.2    25  THR25       0.2642
     14  O          5.5860   16.4960   -0.3010 O.2    25  THR25      -0.2714
     15  CB         4.5740   14.5780    2.2990 C.3    25  THR25       0.1808
     16  OG1        4.0250   13.9910    1.0990 O.3    25  THR25      -0.2208
     17  CG2        3.4830   14.4930    3.3070 C.3    25  THR25       0.0379
     18  N          7.1440   15.5350    1.0370 N.am   26  TRP26      -0.1973
     19  CA         8.1160   15.2580   -0.0290 C.3    26  TRP26       0.1640
     20  C          8.9570   14.0660    0.4000 C.2    26  TRP26       0.2290
     21  O          9.7560   14.1720    1.3120 O.2    26  TRP26      -0.2864
     22  CB         8.9870   16.4820   -0.3090 C.3    26  TRP26       0.0576
     23  CG         9.8280   16.2930   -1.5320 C.ar   26  TRP26       0.0006
     24  CD1       11.0820   15.8180   -1.5950 C.ar   26  TRP26       0.0946
     25  CD2        9.4040   16.5340   -2.8660 C.ar   26  TRP26       0.0152
     26  NE1       11.5010   15.7830   -2.9060 N.ar   26  TRP26      -0.2442
     27  CE2       10.4820   16.2190   -3.7100 C.ar   26  TRP26       0.0810
     28  CE3        8.2220   17.0370   -3.4340 C.ar   26  TRP26       0.0012
     29  CZ2       10.4110   16.3520   -5.1100 C.ar   26  TRP26       0.0191
     30  CZ3        8.1440   17.1830   -4.8040 C.ar   26  TRP26       0.0001
     31  CH2        9.2460   16.8280   -5.6350 C.ar   26  TRP26       0.0015
     32  N         18.1770   12.3160    1.5140 N.3    57  ASP57      -0.1225
     33  CA        18.6530   13.4660    2.2700 C.3    57  ASP57       0.1805
     34  C         17.5730   14.4920    2.6220 C.2    57  ASP57       0.2597
     35  O         17.8140   15.4260    3.3830 O.2    57  ASP57      -0.2718
     36  CB        19.8620   14.0890    1.5390 C.3    57  ASP57       0.1424
     37  CG        19.5120   15.2760    0.5880 C.2    57  ASP57       0.3668
     38  OD1       18.6120   15.2570   -0.3300 O.co2  57  ASP57      -0.2456
     39  OD2       20.2250   16.3000    0.6270 O.co2  57  ASP57      -0.2456
     40  N         16.3960   14.3650    2.0310 N.am   58  TRP58      -0.1976
     41  CA        15.3300   15.3120    2.2300 C.3    58  TRP58       0.1640
     42  C         13.9730   14.6110    2.2130 C.2    58  TRP58       0.2290
     43  O         13.3750   14.3960    1.1510 O.2    58  TRP58      -0.2864
     44  CB        15.3790   16.3900    1.1550 C.3    58  TRP58       0.0576
     45  CG        14.4870   17.5420    1.4500 C.ar   58  TRP58       0.0006
     46  CD1       13.1380   17.6290    1.2520 C.ar   58  TRP58       0.0946
     47  CD2       14.8830   18.7810    2.0440 C.ar   58  TRP58       0.0152
     48  NE1       12.6750   18.8440    1.6950 N.ar   58  TRP58      -0.2442
     49  CE2       13.7300   19.5780    2.1710 C.ar   58  TRP58       0.0810
     50  CE3       16.1050   19.2960    2.4970 C.ar   58  TRP58       0.0012
     51  CZ2       13.7680   20.8770    2.6970 C.ar   58  TRP58       0.0191
     52  CZ3       16.1460   20.5660    3.0260 C.ar   58  TRP58       0.0001
     53  CH2       14.9840   21.3400    3.1450 C.ar   58  TRP58       0.0015
     54  N         10.3840   15.1190    3.9230 N.3    60  GLU60      -0.1245
     55  CA         9.7190   16.2950    4.4790 C.3    60  GLU60       0.1567
     56  C          8.2390   16.0670    4.7540 C.2    60  GLU60       0.2260
     57  O          7.5070   15.5360    3.8740 O.2    60  GLU60      -0.2867
     58  CB         9.8440   17.4480    3.5310 C.3    60  GLU60       0.0388
     59  CG         9.1410   18.7220    3.9630 C.3    60  GLU60       0.1160
     60  CD         9.3010   19.8690    2.9930 C.2    60  GLU60       0.3649
     61  OE1        9.9520   19.6880    1.9400 O.co2  60  GLU60      -0.2457
     62  OE2        8.7420   20.9410    3.2610 O.co2  60  GLU60      -0.2457
     63  N          4.9960   18.7420    6.2560 N.3    62  ARG62      -0.1245
     64  CA         4.7920   20.1790    6.4410 C.3    62  ARG62       0.1563
     65  C          3.4390   20.4750    7.0430 C.2    62  ARG62       0.2260
     66  O          2.4270   19.8800    6.6360 O.2    62  ARG62      -0.2867
     67  CB         4.8460   20.8490    5.0940 C.3    62  ARG62       0.0307
     68  CG         5.3300   22.2050    5.0150 C.3    62  ARG62       0.0489
     69  CD         5.8570   22.4810    3.6310 C.3    62  ARG62       0.2205
     70  NE         4.8900   22.0390    2.6180 N.pl3  62  ARG62      -0.0865
     71  CZ         5.1820   21.3410    1.5390 C.cat  62  ARG62       0.5346
     72  NH1        6.4340   20.9690    1.2730 N.pl3  62  ARG62       0.1354
     73  NH2        4.1920   21.0340    0.6890 N.pl3  62  ARG62       0.1354
     74  N         16.6590   18.5490    9.3400 N.3    93  ARG93      -0.1245
     75  CA        16.9010   19.7450    8.5400 C.3    93  ARG93       0.1563
     76  C         15.6750   20.6240    8.5180 C.2    93  ARG93       0.2260
     77  O         15.2100   21.0490    7.4700 O.2    93  ARG93      -0.2867
     78  CB        17.3350   19.3920    7.1080 C.3    93  ARG93       0.0307
     79  CG        18.4920   18.4600    7.0440 C.3    93  ARG93       0.0489
     80  CD        18.8250   17.9450    5.6580 C.3    93  ARG93       0.2205
     81  NE        19.2870   19.0340    4.7860 N.pl3  93  ARG93      -0.0865
     82  CZ        19.5830   18.8810    3.4900 C.cat  93  ARG93       0.5346
     83  NH1       19.4630   17.6810    2.9500 N.pl3  93  ARG93       0.1354
     84  NH2       20.0030   19.9110    2.7520 N.pl3  93  ARG93       0.1354
     85  N         13.0310   23.7050    8.5860 N.3    95  TYR95      -0.1241
     86  CA        13.0320   25.0520    8.0580 C.3    95  TYR95       0.1605
     87  C         11.5950   25.6050    8.1020 C.2    95  TYR95       0.2264
     88  O         10.7080   25.0640    8.8470 O.2    95  TYR95      -0.2867
     89  CB        13.6790   25.0560    6.6440 C.3    95  TYR95       0.0534
     90  CG        12.7420   24.4950    5.5510 C.ar   95  TYR95      -0.0201
     91  CD1       12.2160   23.1980    5.6300 C.ar   95  TYR95      -0.0009
     92  CD2       12.3420   25.2850    4.4800 C.ar   95  TYR95      -0.0009
     93  CE1       11.3290   22.7380    4.6780 C.ar   95  TYR95       0.0417
     94  CE2       11.4890   24.8050    3.5030 C.ar   95  TYR95       0.0417
     95  CZ        10.9660   23.5500    3.6230 C.ar   95  TYR95       0.1957
     96  OH        10.0720   23.1230    2.6610 O.3    95  TYR95      -0.2866
     97  N          4.1260   32.2370    2.7000 N.3    99  ASN99      -0.1240
     98  CA         3.2450   32.0880    1.5270 C.3    99  ASN99       0.1653
     99  C          2.1010   33.0970    1.6590 C.2    99  ASN99       0.2266
    100  O          1.6990   33.4260    2.7650 O.2    99  ASN99      -0.2867
    101  CB         2.7240   30.6670    1.5190 C.3    99  ASN99       0.1155
    102  CG         2.3310   30.2060    0.1460 C.2    99  ASN99       0.2627
    103  OD1        3.0920   30.3470   -0.7970 O.2    99  ASN99      -0.2716
    104  ND2        1.1570   29.6210    0.0380 N.am   99  ASN99      -0.0877
    105  N          5.6990   31.2240   -1.7370 N.3   102  TRP102     -0.1241
    106  CA         6.5390   30.0680   -1.4060 C.3   102  TRP102      0.1605
    107  C          8.0050   30.4790   -1.1620 C.2   102  TRP102      0.2264
    108  O          8.9460   29.9760   -1.8070 O.2   102  TRP102     -0.2867
    109  CB         6.4100   28.8850   -2.3980 C.3   102  TRP102      0.0550
    110  CG         6.6900   27.5930   -1.7100 C.ar  102  TRP102      0.0003
    111  CD1        7.8340   26.8630   -1.7610 C.ar  102  TRP102      0.0946
    112  CD2        5.8370   26.9350   -0.7620 C.ar  102  TRP102      0.0152
    113  NE1        7.7390   25.7700   -0.9340 N.ar  102  TRP102     -0.2442
    114  CE2        6.5270   25.7990   -0.3000 C.ar  102  TRP102      0.0810
    115  CE3        4.5580   27.2030   -0.2470 C.ar  102  TRP102      0.0012
    116  CZ2        5.9870   24.9230    0.6230 C.ar  102  TRP102      0.0191
    117  CZ3        4.0210   26.3290    0.6830 C.ar  102  TRP102      0.0001
    118  CH2        4.7390   25.2090    1.1140 C.ar  102  TRP102      0.0015
    119  N         11.1070   30.3190    0.8510 N.3   104  LYS104     -0.1245
    120  CA        11.7420   29.3570    1.7320 C.3   104  LYS104      0.1561
    121  C         12.6700   30.1340    2.6470 C.2   104  LYS104      0.2260
    122  O         13.5040   30.8900    2.1820 O.2   104  LYS104     -0.2867
    123  CB        12.5440   28.3320    0.9120 C.3   104  LYS104      0.0271
    124  CG        11.6910   27.5240   -0.0690 C.3   104  LYS104      0.0035
    125  CD        12.5720   26.7030   -0.9760 C.3   104  LYS104      0.0206
    126  CE        11.7440   25.9780   -2.0410 C.3   104  LYS104      0.1093
    127  NZ        12.6090   25.1200   -2.9210 N.3   104  LYS104     -0.1314
    128  N         16.8360   27.7110    5.2410 N.3   107  LEU107     -0.1231
    129  CA        17.2890   26.4240    4.7120 C.3   107  LEU107      0.1693
    130  C         18.6760   26.0860    5.2650 C.2   107  LEU107      0.2592
    131  O         19.6160   26.8970    5.1450 O.2   107  LEU107     -0.2718
    132  CB        17.3340   26.4410    3.1800 C.3   107  LEU107      0.0284
    133  CG        16.0150   26.2620    2.4310 C.3   107  LEU107      0.0019
    134  CD1       16.2090   26.6120    0.9360 C.3   107  LEU107      0.0001
    135  CD2       15.4690   24.8040    2.6620 C.3   107  LEU107      0.0001
    136  N         18.7730   24.9250    5.8880 N.am  108  ASP108     -0.1974
    137  CA        20.0170   24.3630    6.4360 C.3   108  ASP108      0.1709
    138  C         20.6360   25.2200    7.5180 C.2   108  ASP108      0.2293
    139  O         21.8530   25.1290    7.7760 O.2   108  ASP108     -0.2864
    140  CB        21.0430   24.1120    5.3250 C.3   108  ASP108      0.1436
    141  CG        20.6480   22.9780    4.4170 C.2   108  ASP108      0.3671
    142  OD1       20.0440   21.9790    4.9120 O.co2 108  ASP108     -0.2456
    143  OD2       20.9220   23.0120    3.1920 O.co2 108  ASP108     -0.2456
    144  N          4.4390   28.0240    6.9230 N.3   146  HIS146     -0.1241
    145  CA         4.5760   26.6020    6.8160 C.3   146  HIS146      0.1621
    146  C          5.8450   26.2020    7.5810 C.2   146  HIS146      0.2264
    147  O          6.9330   26.7910    7.3650 O.2   146  HIS146     -0.2867
    148  CB         4.6670   26.2110    5.3390 C.3   146  HIS146      0.0745
    149  CG         3.4440   26.5560    4.5680 C.ar  146  HIS146      0.0817
    150  ND1        2.6110   25.5980    4.0350 N.ar  146  HIS146     -0.2268
    151  CD2        2.9320   27.7580    4.2040 C.ar  146  HIS146      0.1154
    152  CE1        1.6100   26.1930    3.4170 C.ar  146  HIS146      0.1986
    153  NE2        1.7870   27.5060    3.4760 N.ar  146  HIS146     -0.2212
@<TRIPOS>BOND
     1    31    29   ar
     2    31    30   ar
     3    29    27   ar
     4    30    28   ar
     5    27    26   ar
     6    27    25   ar
     7    28    25   ar
     8   127   126    1
     9    26    24   ar
    10    25    23   ar
    11   109   110    1
    12   109   106    1
    13   126   125    1
    14   108   107    2
    15   111   110   ar
    16   111   113   ar
    17   105   106    1
    18   110   112   ar
    19    24    23   ar
    20    23    22    1
    21   106   107    1
    22   125   124    1
    23   113   114   ar
    24   103   102    2
    25   112   114   ar
    26   112   115   ar
    27    38    37   ar
    28    22    19    1
    29    14    13    2
    30   114   116   ar
    31   115   117   ar
    32   124   123    1
    33    19    20    1
    34    19    18    1
    35   104   102   am
    36   102   101    1
    37    20    21    2
    38    37    39   ar
    39    37    36    1
    40   116   118   ar
    41   117   118   ar
    42    73    71    1
    43    13    18   am
    44    13    12    1
    45   119   120    1
    46   123   120    1
    47   134   133    1
    48    16    15    1
    49    43    42    2
    50    44    45    1
    51    44    41    1
    52    46    45   ar
    53    46    48   ar
    54    72    71    1
    55    45    47   ar
    56    32    33    1
    57   101    98    1
    58    98    99    1
    59    98    97    1
    60    71    70    2
    61    36    33    1
    62     4     3    2
    63    99   100    2
    64    11    12    1
    65    11     9   am
    66    48    49   ar
    67   120   121    1
    68    61    60   ar
    69    12    15    1
    70    40    41    1
    71    40    34   am
    72    47    49   ar
    73    47    50   ar
    74     8     9    1
    75     8     7    1
    76    49    51   ar
    77   122   121    2
    78    42    41    1
    79    33    34    1
    80    15    17    1
    81   133   135    1
    82   133   132    1
    83    50    52   ar
    84     9    10    2
    85    70    69    1
    86    34    35    2
    87     3     7   am
    88     3     2    1
    89    96    95    1
    90    51    53   ar
    91    84    82    1
    92    83    82    1
    93    60    62   ar
    94    60    59    1
    95    52    53   ar
    96   132   129    1
    97   143   141   ar
    98   152   153   ar
    99   152   150   ar
   100   153   151   ar
   101    82    81    2
   102    94    95   ar
   103    94    92   ar
   104    58    59    1
   105    58    55    1
   106     2     5    1
   107     2     1    1
   108    95    93   ar
   109    69    68    1
   110     5     6    1
   111    57    56    2
   112    54    55    1
   113   150   149   ar
   114   151   149   ar
   115   141   142   ar
   116   141   140    1
   117    55    56    1
   118    92    90   ar
   119   149   148    1
   120    93    91   ar
   121   129   128    1
   122   129   130    1
   123    81    80    1
   124    68    67    1
   125    67    64    1
   126   131   130    2
   127   130   136   am
   128   140   137    1
   129   148   145    1
   130    90    91   ar
   131    90    89    1
   132    80    79    1
   133   136   137    1
   134    63    64    1
   135   137   138    1
   136    64    65    1
   137    66    65    2
   138    89    86    1
   139   145   144    1
   140   145   146    1
   141    79    78    1
   142    78    75    1
   143   147   146    2
   144    77    76    2
   145   138   139    2
   146    86    87    1
   147    86    85    1
   148    87    88    2
   149    76    75    1
   150    75    74    1
