@<TRIPOS>MOLECULE
tmp/1of8A01.pdb
 90 87 0 0 0
SMALL
GASTEIGER

@<TRIPOS>ATOM
      1  N        152.1300   27.7120   30.6710 N.3    54  CYS54      -0.1235
      2  CA       152.7860   28.4170   29.5630 C.3    54  CYS54       0.1677
      3  C        154.1890   28.8520   30.0090 C.2    54  CYS54       0.2270
      4  O        155.1860   28.6670   29.2780 O.2    54  CYS54      -0.2867
      5  CB       151.9820   29.6400   29.1110 C.3    54  CYS54       0.0956
      6  SG       152.8310   30.5860   27.7760 S.3    54  CYS54      -0.0801
      7  N        160.7220   32.6220   27.3770 N.3    90  LYS90      -0.1231
      8  CA       159.5520   32.9180   26.5670 C.3    90  LYS90       0.1678
      9  C        159.9290   33.8010   25.3980 C.2    90  LYS90       0.2434
     10  O        160.4740   34.8800   25.6050 O.2    90  LYS90      -0.2733
     11  CB       158.4520   33.5850   27.4030 C.3    90  LYS90       0.0284
     12  CG       158.0110   32.7400   28.6000 C.3    90  LYS90       0.0035
     13  CD       157.5360   31.3220   28.2090 C.3    90  LYS90       0.0206
     14  CE       156.3820   31.2970   27.2460 C.3    90  LYS90       0.1093
     15  NZ       155.9610   29.8820   26.9160 N.3    90  LYS90      -0.1314
     16  N        159.6620   33.3310   24.1740 N.am   91  PRO91      -0.2718
     17  CA       159.9160   34.1310   22.9640 C.3    91  PRO91       0.1535
     18  C        158.7550   35.1030   22.7740 C.2    91  PRO91       0.2598
     19  O        157.5810   34.6880   22.7200 O.2    91  PRO91      -0.2715
     20  CB       159.9520   33.0820   21.8490 C.3    91  PRO91       0.0310
     21  CG       159.0310   32.0040   22.3450 C.3    91  PRO91       0.0237
     22  CD       159.1090   32.0020   23.8450 C.3    91  PRO91       0.0939
     23  N        159.0510   36.3910   22.6790 N.am   92  ARG92      -0.1964
     24  CA       157.9880   37.3750   22.5580 C.3    92  ARG92       0.1729
     25  C        157.8180   37.8290   21.1180 C.2    92  ARG92       0.2617
     26  O        158.7760   37.8700   20.3570 O.2    92  ARG92      -0.2715
     27  CB       158.2830   38.5820   23.4510 C.3    92  ARG92       0.0348
     28  CG       158.5080   38.2550   24.9270 C.3    92  ARG92       0.0492
     29  CD       157.4470   37.3460   25.5290 C.3    92  ARG92       0.2205
     30  NE       156.1030   37.9450   25.4790 N.pl3  92  ARG92      -0.0865
     31  CZ       155.3430   38.2520   26.5370 C.cat  92  ARG92       0.5346
     32  NH1      155.7630   38.0920   27.7840 N.pl3  92  ARG92       0.1354
     33  NH2      154.1300   38.7410   26.3340 N.pl3  92  ARG92       0.1354
     34  N        156.6000   38.2250   20.7680 N.am   93  THR93      -0.1937
     35  CA       156.3180   38.7570   19.4530 C.3    93  THR93       0.2028
     36  C        157.1340   40.0200   19.1790 C.2    93  THR93       0.2643
     37  O        157.7200   40.1560   18.1080 O.2    93  THR93      -0.2714
     38  CB       154.7960   38.9850   19.3360 C.3    93  THR93       0.1808
     39  OG1      154.1410   37.7060   19.3730 O.3    93  THR93      -0.2208
     40  CG2      154.4030   39.5920   18.0000 C.3    93  THR93       0.0379
     41  N        157.1480   40.9420   20.1360 N.am   94  THR94      -0.1936
     42  CA       158.1050   42.0510   20.1510 C.3    94  THR94       0.2028
     43  C        158.8990   42.0550   21.4480 C.2    94  THR94       0.2642
     44  O        160.0020   41.5060   21.5040 O.2    94  THR94      -0.2714
     45  CB       157.4010   43.4080   19.9340 C.3    94  THR94       0.1808
     46  OG1      156.2890   43.5590   20.8380 O.3    94  THR94      -0.2208
     47  CG2      156.7970   43.4990   18.5560 C.3    94  THR94       0.0379
     48  N        158.3190   42.6400   22.4870 N.am   95  VAL95      -0.1977
     49  CA       158.9220   42.7170   23.8110 C.3    95  VAL95       0.1596
     50  C        157.9320   42.2330   24.8610 C.2    95  VAL95       0.2287
     51  O        156.7440   42.0590   24.5990 O.2    95  VAL95      -0.2864
     52  CB       159.4050   44.1620   24.1440 C.3    95  VAL95       0.0276
     53  CG1      160.5180   44.5330   23.1880 C.3    95  VAL95       0.0022
     54  CG2      158.2610   45.1620   24.0480 C.3    95  VAL95       0.0022
     55  N        159.1300   30.3920   16.4160 N.3   158  ARG158     -0.1245
     56  CA       159.9020   31.5480   15.9920 C.3   158  ARG158      0.1563
     57  C        161.4110   31.2690   15.8310 C.2   158  ARG158      0.2260
     58  O        162.1380   32.1270   15.3490 O.2   158  ARG158     -0.2867
     59  CB       159.6940   32.6640   17.0120 C.3   158  ARG158      0.0307
     60  CG       158.2380   33.1280   17.0200 C.3   158  ARG158      0.0489
     61  CD       157.8880   34.0180   18.2110 C.3   158  ARG158      0.2205
     62  NE       156.4450   34.2100   18.2820 N.pl3 158  ARG158     -0.0865
     63  CZ       155.6060   33.3260   18.8040 C.cat 158  ARG158      0.5346
     64  NH1      156.0650   32.2150   19.3550 N.pl3 158  ARG158      0.1354
     65  NH2      154.2920   33.5390   18.7530 N.pl3 158  ARG158      0.1354
     66  N        148.4170   27.4840   21.6320 N.3   260  HIS260     -0.1241
     67  CA       149.0130   28.3850   20.6500 C.3   260  HIS260      0.1621
     68  C        148.1160   28.5000   19.4140 C.2   260  HIS260      0.2264
     69  O        146.9130   28.8060   19.5630 O.2   260  HIS260     -0.2867
     70  CB       150.4910   28.0090   20.4320 C.3   260  HIS260      0.0745
     71  CG       151.2420   27.9770   21.7270 C.ar  260  HIS260      0.0817
     72  ND1      151.4730   26.8150   22.4260 N.ar  260  HIS260     -0.2268
     73  CD2      151.6970   28.9870   22.5120 C.ar  260  HIS260      0.1154
     74  CE1      152.0660   27.1030   23.5730 C.ar  260  HIS260      0.1986
     75  NE2      152.1990   28.4180   23.6610 N.ar  260  HIS260     -0.2212
     76  N        151.5020   34.7140   31.1930 N.3   312  THR312     -0.1203
     77  CA       151.7080   34.7580   29.7560 C.3   312  THR312      0.1994
     78  C        150.4250   34.2390   29.1020 C.2   312  THR312      0.2617
     79  O        149.3600   34.8140   29.3500 O.2   312  THR312     -0.2717
     80  CB       153.0070   34.0110   29.3560 C.3   312  THR312      0.1784
     81  OG1      153.1200   32.7460   30.0200 O.3   312  THR312     -0.2211
     82  CG2      154.2150   34.7860   29.8670 C.3   312  THR312      0.0376
     83  N        150.5030   33.1780   28.2980 N.am  313  ASP313     -0.1973
     84  CA       149.3200   32.6710   27.6120 C.3   313  ASP313      0.1709
     85  C        148.3590   32.0090   28.5870 C.2   313  ASP313      0.2293
     86  O        148.7520   31.4450   29.6150 O.2   313  ASP313     -0.2864
     87  CB       149.6690   31.6400   26.5400 C.3   313  ASP313      0.1436
     88  CG       150.5470   32.2000   25.4510 C.2   313  ASP313      0.3671
     89  OD1      151.2740   31.3980   24.8150 O.co2 313  ASP313     -0.2456
     90  OD2      150.5790   33.4200   25.1900 O.co2 313  ASP313     -0.2456
@<TRIPOS>BOND
     1    58    57    2
     2    57    56    1
     3    56    55    1
     4    56    59    1
     5    59    60    1
     6    60    61    1
     7    40    38    1
     8    37    36    2
     9    61    62    1
    10    62    63    2
    11    47    45    1
    12    65    63    1
    13    63    64    1
    14    36    35    1
    15    36    41   am
    16    38    39    1
    17    38    35    1
    18    68    69    2
    19    68    67    1
    20    35    34    1
    21    45    42    1
    22    45    46    1
    23    41    42    1
    24    42    43    1
    25    26    25    2
    26    70    67    1
    27    70    71    1
    28    67    66    1
    29    34    25   am
    30    25    24    1
    31    43    44    2
    32    43    48   am
    33    71    72   ar
    34    71    73   ar
    35    20    21    1
    36    20    17    1
    37    21    22    1
    38    72    74   ar
    39    48    49    1
    40    73    75   ar
    41    24    23    1
    42    24    27    1
    43    23    18   am
    44    19    18    2
    45    18    17    1
    46    17    16    1
    47    53    52    1
    48    27    28    1
    49    74    75   ar
    50    49    52    1
    51    49    50    1
    52    22    16    1
    53    54    52    1
    54    16     9   am
    55    51    50    2
    56    89    88   ar
    57    28    29    1
    58    90    88   ar
    59     9    10    2
    60     9     8    1
    61    88    87    1
    62    30    29    1
    63    30    31    2
    64    33    31    1
    65    31    32    1
    66    87    84    1
    67     8     7    1
    68     8    11    1
    69    15    14    1
    70    14    13    1
    71    11    12    1
    72    84    83    1
    73    84    85    1
    74     6     5    1
    75    13    12    1
    76    83    78   am
    77    85    86    2
    78    78    79    2
    79    78    77    1
    80     5     2    1
    81     4     3    2
    82    80    77    1
    83    80    82    1
    84    80    81    1
    85     2     3    1
    86     2     1    1
    87    77    76    1
