@<TRIPOS>MOLECULE
tmp/1of8A00.pdb
 114 107 0 0 0
SMALL
GASTEIGER

@<TRIPOS>ATOM
      1  N        155.5550   20.6940   31.5600 N.3    85  ARG85      -0.1245
      2  CA       156.0770   21.9450   31.0120 C.3    85  ARG85       0.1563
      3  C        156.5960   22.7980   32.1850 C.2    85  ARG85       0.2260
      4  O        155.8180   23.2110   33.0450 O.2    85  ARG85      -0.2867
      5  CB       154.9730   22.7440   30.3130 C.3    85  ARG85       0.0307
      6  CG       154.5560   22.2520   28.9230 C.3    85  ARG85       0.0489
      7  CD       153.4390   23.1180   28.3030 C.3    85  ARG85       0.2205
      8  NE       153.8450   24.5150   28.2690 N.pl3  85  ARG85      -0.0865
      9  CZ       154.2050   25.1970   27.1890 C.cat  85  ARG85       0.5346
     10  NH1      154.1580   24.6610   25.9700 N.pl3  85  ARG85       0.1354
     11  NH2      154.5860   26.4520   27.3290 N.pl3  85  ARG85       0.1354
     12  N        158.6140   25.7750   31.6850 N.3    87  TYR87      -0.1241
     13  CA       159.2050   26.6870   30.7320 C.3    87  TYR87       0.1605
     14  C        159.7790   27.9510   31.3810 C.2    87  TYR87       0.2264
     15  O        159.0560   28.7120   32.0450 O.2    87  TYR87      -0.2867
     16  CB       158.1660   27.0730   29.6780 C.3    87  TYR87       0.0534
     17  CG       157.9840   26.0430   28.5610 C.ar   87  TYR87      -0.0201
     18  CD1      157.9040   24.6920   28.8280 C.ar   87  TYR87      -0.0009
     19  CD2      157.8600   26.4360   27.2390 C.ar   87  TYR87      -0.0009
     20  CE1      157.7400   23.7670   27.7980 C.ar   87  TYR87       0.0417
     21  CE2      157.7110   25.5140   26.2170 C.ar   87  TYR87       0.0417
     22  CZ       157.6110   24.1890   26.4950 C.ar   87  TYR87       0.1957
     23  OH       157.4500   23.2590   25.4810 O.3    87  TYR87      -0.2866
     24  N        160.7220   32.6220   27.3770 N.3    90  LYS90      -0.1231
     25  CA       159.5520   32.9180   26.5670 C.3    90  LYS90       0.1678
     26  C        159.9290   33.8010   25.3980 C.2    90  LYS90       0.2434
     27  O        160.4740   34.8800   25.6050 O.2    90  LYS90      -0.2733
     28  CB       158.4520   33.5850   27.4030 C.3    90  LYS90       0.0284
     29  CG       158.0110   32.7400   28.6000 C.3    90  LYS90       0.0035
     30  CD       157.5360   31.3220   28.2090 C.3    90  LYS90       0.0206
     31  CE       156.3820   31.2970   27.2460 C.3    90  LYS90       0.1093
     32  NZ       155.9610   29.8820   26.9160 N.3    90  LYS90      -0.1314
     33  N        159.6620   33.3310   24.1740 N.am   91  PRO91      -0.2729
     34  CA       159.9160   34.1310   22.9640 C.3    91  PRO91       0.1401
     35  C        158.7550   35.1030   22.7740 C.2    91  PRO91       0.2269
     36  O        157.5810   34.6880   22.7200 O.2    91  PRO91      -0.2865
     37  CB       159.9520   33.0820   21.8490 C.3    91  PRO91       0.0296
     38  CG       159.0310   32.0040   22.3450 C.3    91  PRO91       0.0237
     39  CD       159.1090   32.0020   23.8450 C.3    91  PRO91       0.0939
     40  N        161.2190   25.0290   26.7100 N.3   136  GLU136     -0.1245
     41  CA       161.6870   25.5680   25.4310 C.3   136  GLU136      0.1567
     42  C        163.1660   25.9740   25.5620 C.2   136  GLU136      0.2260
     43  O        163.5590   26.7200   26.4580 O.2   136  GLU136     -0.2867
     44  CB       160.8590   26.7560   24.8830 C.3   136  GLU136      0.0388
     45  CG       161.5130   27.3190   23.6150 C.3   136  GLU136      0.1160
     46  CD       160.8040   28.4910   22.9430 C.2   136  GLU136      0.3649
     47  OE1      159.5960   28.7320   23.2080 O.co2 136  GLU136     -0.2457
     48  OE2      161.4690   29.1650   22.1080 O.co2 136  GLU136     -0.2457
     49  N        160.9370   26.5880   19.6320 N.3   156  GLY156     -0.1210
     50  CA       159.7110   27.3070   19.3610 C.3   156  GLY156      0.1956
     51  C        159.5010   27.6480   17.9000 C.2   156  GLY156      0.2612
     52  O        160.4160   27.6340   17.0980 O.2   156  GLY156     -0.2717
     53  N        158.2570   27.9630   17.5670 N.am  157  ALA157     -0.1965
     54  CA       157.8980   28.3270   16.1980 C.3   157  ALA157      0.1728
     55  C        158.7580   29.4300   15.5910 C.2   157  ALA157      0.2616
     56  O        159.0310   29.4280   14.4040 O.2   157  ALA157     -0.2715
     57  CB       156.4330   28.7340   16.1370 C.3   157  ALA157      0.0334
     58  N        159.1300   30.3920   16.4160 N.am  158  ARG158     -0.1977
     59  CA       159.9020   31.5480   15.9920 C.3   158  ARG158      0.1597
     60  C        161.4110   31.2690   15.8310 C.2   158  ARG158      0.2287
     61  O        162.1380   32.1270   15.3490 O.2   158  ARG158     -0.2864
     62  CB       159.6940   32.6640   17.0120 C.3   158  ARG158      0.0334
     63  CG       158.2380   33.1280   17.0200 C.3   158  ARG158      0.0492
     64  CD       157.8880   34.0180   18.2110 C.3   158  ARG158      0.2205
     65  NE       156.4450   34.2100   18.2820 N.pl3 158  ARG158     -0.0865
     66  CZ       155.6060   33.3260   18.8040 C.cat 158  ARG158      0.5346
     67  NH1      156.0650   32.2150   19.3550 N.pl3 158  ARG158      0.1354
     68  NH2      154.2920   33.5390   18.7530 N.pl3 158  ARG158      0.1354
     69  N        158.6370   23.0260   16.6970 N.3   179  LYS179     -0.1245
     70  CA       157.3350   23.5480   16.3340 C.3   179  LYS179      0.1561
     71  C        157.3160   23.9710   14.8870 C.2   179  LYS179      0.2260
     72  O        158.2970   24.5250   14.3700 O.2   179  LYS179     -0.2867
     73  CB       157.0050   24.7590   17.1950 C.3   179  LYS179      0.0271
     74  CG       156.9200   24.4860   18.6860 C.3   179  LYS179      0.0035
     75  CD       155.5860   23.9350   19.0780 C.3   179  LYS179      0.0206
     76  CE       155.2950   24.1250   20.5360 C.3   179  LYS179      0.1093
     77  NZ       154.3530   25.1910   20.8930 N.3   179  LYS179     -0.1314
     78  N        151.3350   23.1260   15.7530 N.3   227  ARG227     -0.1245
     79  CA       150.8450   24.1730   16.6470 C.3   227  ARG227      0.1563
     80  C        150.0660   25.2720   15.9370 C.2   227  ARG227      0.2260
     81  O        149.9020   26.3680   16.4900 O.2   227  ARG227     -0.2867
     82  CB       152.0060   24.7570   17.4730 C.3   227  ARG227      0.0307
     83  CG       153.2280   25.2420   16.6960 C.3   227  ARG227      0.0489
     84  CD       153.0600   26.5770   16.0050 C.3   227  ARG227      0.2205
     85  NE       153.0300   27.6850   16.9630 N.pl3 227  ARG227     -0.0865
     86  CZ       152.5100   28.8830   16.7340 C.cat 227  ARG227      0.5346
     87  NH1      151.8510   29.1700   15.6080 N.pl3 227  ARG227      0.1354
     88  NH2      152.6210   29.8060   17.6710 N.pl3 227  ARG227      0.1354
     89  N        148.4170   27.4840   21.6320 N.3   260  HIS260     -0.1241
     90  CA       149.0130   28.3850   20.6500 C.3   260  HIS260      0.1621
     91  C        148.1160   28.5000   19.4140 C.2   260  HIS260      0.2264
     92  O        146.9130   28.8060   19.5630 O.2   260  HIS260     -0.2867
     93  CB       150.4910   28.0090   20.4320 C.3   260  HIS260      0.0745
     94  CG       151.2420   27.9770   21.7270 C.ar  260  HIS260      0.0817
     95  ND1      151.4730   26.8150   22.4260 N.ar  260  HIS260     -0.2268
     96  CD2      151.6970   28.9870   22.5120 C.ar  260  HIS260      0.1154
     97  CE1      152.0660   27.1030   23.5730 C.ar  260  HIS260      0.1986
     98  NE2      152.1990   28.4180   23.6610 N.ar  260  HIS260     -0.2212
     99  N        150.7810   18.2980   23.4450 N.3   292  MET292     -0.1245
    100  CA       151.2670   19.3550   24.3110 C.3   292  MET292      0.1570
    101  C        150.0570   20.1870   24.7530 C.2   292  MET292      0.2261
    102  O        149.1890   20.4990   23.9440 O.2   292  MET292     -0.2867
    103  CB       152.2880   20.1900   23.5570 C.3   292  MET292      0.0387
    104  CG       152.8550   21.3160   24.3590 C.3   292  MET292      0.0595
    105  SD       154.1460   22.2480   23.4980 S.3   292  MET292     -0.1393
    106  CE       155.5540   21.1120   23.6000 C.3   292  MET292      0.0692
    107  N        150.5030   33.1780   28.2980 N.3   313  ASP313     -0.1239
    108  CA       149.3200   32.6710   27.6120 C.3   313  ASP313      0.1674
    109  C        148.3590   32.0090   28.5870 C.2   313  ASP313      0.2266
    110  O        148.7520   31.4450   29.6150 O.2   313  ASP313     -0.2867
    111  CB       149.6690   31.6400   26.5400 C.3   313  ASP313      0.1410
    112  CG       150.5470   32.2000   25.4510 C.2   313  ASP313      0.3668
    113  OD1      151.2740   31.3980   24.8150 O.co2 313  ASP313     -0.2456
    114  OD2      150.5790   33.4200   25.1900 O.co2 313  ASP313     -0.2456
@<TRIPOS>BOND
     1    72    71    2
     2    56    55    2
     3    71    70    1
     4    61    60    2
     5    55    54    1
     6    55    58   am
     7    87    86    1
     8    78    79    1
     9    60    59    1
    10    80    81    2
    11    80    79    1
    12    59    58    1
    13    59    62    1
    14    84    83    1
    15    84    85    1
    16    57    54    1
    17    54    53    1
    18    70    69    1
    19    70    73    1
    20    79    82    1
    21    83    82    1
    22    86    85    2
    23    86    88    1
    24    62    63    1
    25    63    64    1
    26    52    51    2
    27    73    74    1
    28    53    51   am
    29    51    50    1
    30    64    65    1
    31    65    66    2
    32    74    75    1
    33    68    66    1
    34    66    67    1
    35    75    76    1
    36    50    49    1
    37    91    92    2
    38    91    90    1
    39    93    90    1
    40    93    94    1
    41    76    77    1
    42    90    89    1
    43    94    95   ar
    44    94    96   ar
    45    37    38    1
    46    37    34    1
    47    48    46   ar
    48    38    39    1
    49    95    97   ar
    50    96    98   ar
    51    36    35    2
    52    35    34    1
    53    46    47   ar
    54    46    45    1
    55    34    33    1
    56    99   100    1
    57   105   106    1
    58   105   104    1
    59   103   100    1
    60   103   104    1
    61    97    98   ar
    62    45    44    1
    63    39    33    1
    64   102   101    2
    65    33    26   am
    66   100   101    1
    67   113   112   ar
    68    44    41    1
    69   114   112   ar
    70    26    27    2
    71    26    25    1
    72    41    42    1
    73    41    40    1
    74   112   111    1
    75    23    22    1
    76    42    43    2
    77    10     9    1
    78    21    22   ar
    79    21    19   ar
    80    22    20   ar
    81   111   108    1
    82    25    24    1
    83    25    28    1
    84    32    31    1
    85     9    11    1
    86     9     8    2
    87    19    17   ar
    88    31    30    1
    89    28    29    1
    90   108   107    1
    91   108   109    1
    92    20    18   ar
    93    30    29    1
    94     8     7    1
    95     7     6    1
    96    17    18   ar
    97    17    16    1
    98   109   110    2
    99     6     5    1
   100    16    13    1
   101     5     2    1
   102    13    14    1
   103    13    12    1
   104     2     1    1
   105     2     3    1
   106    14    15    2
   107     3     4    2
