@<TRIPOS>MOLECULE
tmp/1ofiE01.pdb
 77 71 0 0 0
SMALL
GASTEIGER

@<TRIPOS>ATOM
      1  N         83.9900   46.8680    4.2050 N.3    90  LYS90      -0.1231
      2  CA        83.7730   46.0350    5.3850 C.3    90  LYS90       0.1693
      3  C         82.5630   46.5840    6.1040 C.2    90  LYS90       0.2592
      4  O         82.6870   47.4990    6.9160 O.2    90  LYS90      -0.2718
      5  CB        84.9590   46.0850    6.3520 C.3    90  LYS90       0.0285
      6  CG        84.6770   45.3970    7.6920 C.3    90  LYS90       0.0035
      7  CD        85.6980   45.7580    8.7690 C.3    90  LYS90       0.0206
      8  CE        85.3360   45.1160   10.1050 C.3    90  LYS90       0.1093
      9  NZ        86.2630   45.4970   11.2030 N.3    90  LYS90      -0.1314
     10  N         81.3990   46.0240    5.7990 N.am   91  LEU91      -0.1966
     11  CA        80.1560   46.4560    6.4120 C.3    91  LEU91       0.1728
     12  C         80.1260   46.0250    7.8670 C.2    91  LEU91       0.2616
     13  O         80.6160   44.9570    8.2100 O.2    91  LEU91      -0.2715
     14  CB        78.9710   45.8700    5.6430 C.3    91  LEU91       0.0311
     15  CG        78.7080   46.4480    4.2390 C.3    91  LEU91       0.0022
     16  CD1       78.5570   47.9510    4.3290 C.3    91  LEU91       0.0001
     17  CD2       79.8480   46.1170    3.2990 C.3    91  LEU91       0.0001
     18  N         79.5640   46.8670    8.7260 N.am   92  GLU92      -0.1963
     19  CA        79.4970   46.5650   10.1520 C.3    92  GLU92       0.1733
     20  C         78.0740   46.1570   10.5290 C.2    92  GLU92       0.2616
     21  O         77.4210   46.8070   11.3540 O.2    92  GLU92      -0.2715
     22  CB        79.9380   47.7930   10.9660 C.3    92  GLU92       0.0429
     23  CG        80.6960   47.4920   12.2660 C.3    92  GLU92       0.1163
     24  CD        79.7920   47.1340   13.4320 C.2    92  GLU92       0.3649
     25  OE1       79.1050   46.0930   13.3680 O.co2  92  GLU92      -0.2457
     26  OE2       79.7720   47.9000   14.4190 O.co2  92  GLU92      -0.2457
     27  N         77.5990   45.0730    9.9220 N.am   93  ALA93      -0.1963
     28  CA        76.2550   44.5880   10.1950 C.3    93  ALA93       0.1728
     29  C         76.0360   43.1940    9.6390 C.2    93  ALA93       0.2616
     30  O         76.6240   42.8270    8.6280 O.2    93  ALA93      -0.2715
     31  CB        75.2300   45.5470    9.6000 C.3    93  ALA93       0.0334
     32  N         75.1840   42.4230   10.3110 N.am   94  MET94      -0.1977
     33  CA        74.8580   41.0680    9.8760 C.3    94  MET94       0.1605
     34  C         73.4650   41.0120    9.2930 C.2    94  MET94       0.2287
     35  O         72.7170   41.9850    9.3300 O.2    94  MET94      -0.2864
     36  CB        74.9640   40.0720   11.0330 C.3    94  MET94       0.0413
     37  CG        76.3790   39.6310   11.3040 C.3    94  MET94       0.0598
     38  SD        76.5050   38.4720   12.6510 S.3    94  MET94      -0.1393
     39  CE        76.4130   39.6170   14.0490 C.3    94  MET94       0.0692
     40  N         72.8670   33.2140    8.0650 N.3   105  ILE105     -0.1245
     41  CA        73.2440   34.4660    8.6790 C.3   105  ILE105      0.1561
     42  C         74.4170   34.9380    7.8320 C.2   105  ILE105      0.2260
     43  O         75.3510   34.1720    7.5800 O.2   105  ILE105     -0.2867
     44  CB        73.6860   34.2560   10.1280 C.3   105  ILE105      0.0252
     45  CG1       74.2790   35.5420   10.6910 C.3   105  ILE105      0.0019
     46  CG2       74.6980   33.1440   10.1940 C.3   105  ILE105      0.0019
     47  CD1       74.7750   35.3970   12.1110 C.3   105  ILE105      0.0001
     48  N         77.3870   37.9630    7.1730 N.3   107  THR107     -0.1218
     49  CA        78.1060   39.0440    7.8110 C.3   107  THR107      0.1862
     50  C         78.7130   39.9280    6.7230 C.2   107  THR107      0.2287
     51  O         78.8440   39.5020    5.5730 O.2   107  THR107     -0.2866
     52  CB        79.2120   38.4920    8.6940 C.3   107  THR107      0.1770
     53  OG1       80.1010   37.7180    7.8890 O.3   107  THR107     -0.2211
     54  CG2       78.6320   37.6050    9.7760 C.3   107  THR107      0.0375
     55  N         81.6800   40.7330    6.2640 N.3   109  ILE109     -0.1245
     56  CA        83.1150   40.4570    6.2230 C.3   109  ILE109      0.1561
     57  C         83.4000   39.3980    5.1680 C.2   109  ILE109      0.2260
     58  O         84.5220   39.3000    4.6570 O.2   109  ILE109     -0.2867
     59  CB        83.6290   39.9500    7.5750 C.3   109  ILE109      0.0252
     60  CG1       82.6290   38.9390    8.1500 C.3   109  ILE109      0.0019
     61  CG2       83.8800   41.1140    8.4960 C.3   109  ILE109      0.0019
     62  CD1       82.9730   38.3880    9.5300 C.3   109  ILE109      0.0001
     63  N         81.2830   35.8150    4.9070 N.3   111  ASP111     -0.1239
     64  CA        81.0240   34.4280    5.2580 C.3   111  ASP111      0.1674
     65  C         79.5530   34.1450    5.5260 C.2   111  ASP111      0.2266
     66  O         78.8360   34.9760    6.0910 O.2   111  ASP111     -0.2867
     67  CB        81.8830   34.0310    6.4710 C.3   111  ASP111      0.1410
     68  CG        81.6590   34.9320    7.6710 C.2   111  ASP111      0.3668
     69  OD1       82.5920   35.0970    8.4870 O.co2 111  ASP111     -0.2456
     70  OD2       80.5410   35.4650    7.8040 O.co2 111  ASP111     -0.2456
     71  N         76.6540   31.4300    7.1630 N.3   113  VAL113     -0.1245
     72  CA        76.6100   30.4780    8.2640 C.3   113  VAL113      0.1561
     73  C         75.2930   29.7410    8.4100 C.2   113  VAL113      0.2260
     74  O         74.2250   30.3590    8.4640 O.2   113  VAL113     -0.2867
     75  CB        76.9140   31.1630    9.5960 C.3   113  VAL113      0.0252
     76  CG1       76.9000   30.1450   10.7120 C.3   113  VAL113      0.0019
     77  CG2       78.2490   31.8490    9.5260 C.3   113  VAL113      0.0019
@<TRIPOS>BOND
     1    17    15    1
     2     1     2    1
     3    15    16    1
     4    15    14    1
     5    58    57    2
     6    63    64    1
     7    57    56    1
     8    64    65    1
     9    64    67    1
    10     2     3    1
    11     2     5    1
    12    65    66    2
    13    51    50    2
    14    14    11    1
    15    10     3   am
    16    10    11    1
    17     3     4    2
    18    56    55    1
    19    56    59    1
    20     5     6    1
    21    11    12    1
    22    67    68    1
    23    50    49    1
    24    71    72    1
    25    48    49    1
    26    59    60    1
    27    59    61    1
    28    43    42    2
    29    68    70   ar
    30    68    69   ar
    31     6     7    1
    32    49    52    1
    33    42    41    1
    34    12    13    2
    35    12    18   am
    36    53    52    1
    37    40    41    1
    38    60    62    1
    39    72    73    1
    40    72    75    1
    41    73    74    2
    42    30    29    2
    43    41    44    1
    44    52    54    1
    45    18    19    1
    46     7     8    1
    47    34    35    2
    48    34    33    1
    49    77    75    1
    50    75    76    1
    51    31    28    1
    52    29    28    1
    53    29    32   am
    54    33    32    1
    55    33    36    1
    56    27    28    1
    57    27    20   am
    58     8     9    1
    59    44    46    1
    60    44    45    1
    61    19    20    1
    62    19    22    1
    63    20    21    2
    64    45    47    1
    65    22    23    1
    66    36    37    1
    67    37    38    1
    68    23    24    1
    69    38    39    1
    70    25    24   ar
    71    24    26   ar
