@<TRIPOS>MOLECULE
tmp/1ofiD00.pdb
 126 121 0 0 0
SMALL
GASTEIGER

@<TRIPOS>ATOM
      1  N         91.9170  137.4630   40.3560 N.3     1  THR1       -0.1218
      2  CA        91.3330  136.5570   41.3750 C.3     1  THR1        0.1862
      3  C         89.8780  136.3180   41.0660 C.2     1  THR1        0.2287
      4  O         89.2090  137.1750   40.4830 O.2     1  THR1       -0.2866
      5  CB        91.4540  137.1710   42.7650 C.3     1  THR1        0.1770
      6  OG1       92.8510  137.3730   42.9990 O.3     1  THR1       -0.2211
      7  CG2       90.8510  136.2680   43.8740 C.3     1  THR1        0.0375
      8  N         96.0700  132.7470   42.1280 N.3    19  GLN19      -0.1231
      9  CA        97.0350  133.6700   41.5530 C.3    19  GLN19       0.1698
     10  C         97.1790  135.0520   42.1810 C.2    19  GLN19       0.2592
     11  O         96.2160  135.8110   42.2970 O.2    19  GLN19      -0.2718
     12  CB        96.7520  133.8280   40.0540 C.3    19  GLN19       0.0381
     13  CG        97.2580  135.1210   39.4540 C.3    19  GLN19       0.0905
     14  CD        97.3850  135.0540   37.9560 C.2    19  GLN19       0.2608
     15  OE1       97.4780  136.0810   37.2800 O.2    19  GLN19      -0.2717
     16  NE2       97.4070  133.8430   37.4240 N.am   19  GLN19      -0.0878
     17  N         98.4070  135.3720   42.5700 N.am   20  VAL20      -0.1966
     18  CA        98.7270  136.6810   43.1290 C.3    20  VAL20       0.1727
     19  C         99.4080  137.4640   42.0050 C.2    20  VAL20       0.2617
     20  O        100.5290  137.1500   41.6010 O.2    20  VAL20      -0.2715
     21  CB        99.6910  136.5720   44.2970 C.3    20  VAL20       0.0290
     22  CG1       99.8790  137.9320   44.9190 C.3    20  VAL20       0.0023
     23  CG2       99.1660  135.5770   45.3020 C.3    20  VAL20       0.0023
     24  N         98.7230  138.4790   41.4960 N.am   21  SER21      -0.1936
     25  CA        99.2480  139.2690   40.3900 C.3    21  SER21       0.2055
     26  C         99.7930  140.6270   40.7940 C.2    21  SER21       0.2643
     27  O         99.0470  141.4760   41.2740 O.2    21  SER21      -0.2714
     28  CB        98.1480  139.4780   39.3450 C.3    21  SER21       0.2130
     29  OG        97.3740  138.3020   39.1590 O.3    21  SER21      -0.2179
     30  N        101.0960  140.8260   40.6090 N.am   22  LEU22      -0.1963
     31  CA       101.7390  142.1180   40.8910 C.3    22  LEU22       0.1728
     32  C        101.7770  142.8240   39.5440 C.2    22  LEU22       0.2616
     33  O        102.4600  142.3840   38.6280 O.2    22  LEU22      -0.2715
     34  CB       103.1720  141.9340   41.3890 C.3    22  LEU22       0.0311
     35  CG       104.0630  143.1650   41.2010 C.3    22  LEU22       0.0022
     36  CD1      103.7240  144.1830   42.2480 C.3    22  LEU22       0.0001
     37  CD2      105.5290  142.7760   41.2990 C.3    22  LEU22       0.0001
     38  N        101.0460  143.9150   39.4070 N.am   23  GLY23      -0.1955
     39  CA       101.0450  144.5670   38.1180 C.3    23  GLY23       0.1869
     40  C        100.7090  143.4950   37.1060 C.2    23  GLY23       0.2309
     41  O         99.9350  142.6000   37.4020 O.2    23  GLY23      -0.2863
     42  N        103.1500  136.8680   40.8930 N.3    27  MET27      -0.1245
     43  CA       103.8960  136.6980   42.1300 C.3    27  MET27       0.1570
     44  C        103.9870  135.2320   42.4640 C.2    27  MET27       0.2261
     45  O        105.0750  134.6780   42.5920 O.2    27  MET27      -0.2867
     46  CB       103.2000  137.4230   43.2770 C.3    27  MET27       0.0387
     47  CG       104.0050  137.4280   44.5370 C.3    27  MET27       0.0595
     48  SD       105.6330  138.0110   44.1240 S.3    27  MET27      -0.1393
     49  CE       105.4830  139.7790   44.4480 C.3    27  MET27       0.0692
     50  N         93.0990  131.3120   48.7760 N.3    33  LYS33      -0.1245
     51  CA        92.2460  132.4770   48.9040 C.3    33  LYS33       0.1561
     52  C         90.9550  132.2120   49.6640 C.2    33  LYS33       0.2260
     53  O         90.2040  133.1450   49.9880 O.2    33  LYS33      -0.2867
     54  CB        91.9520  133.0300   47.5190 C.3    33  LYS33       0.0271
     55  CG        93.2160  133.3980   46.7480 C.3    33  LYS33       0.0035
     56  CD        92.8920  133.9510   45.3650 C.3    33  LYS33       0.0206
     57  CE        94.1320  134.4300   44.6440 C.3    33  LYS33       0.1093
     58  NZ        93.7820  134.9470   43.3030 N.3    33  LYS33      -0.1314
     59  N         88.7080  135.7080   50.3060 N.3    46  PHE46      -0.1227
     60  CA        88.9410  137.1450   50.1250 C.3    46  PHE46       0.1736
     61  C         89.4400  137.5760   48.7560 C.2    46  PHE46       0.2595
     62  O         90.1590  136.8500   48.0770 O.2    46  PHE46      -0.2718
     63  CB        89.8930  137.6550   51.2070 C.3    46  PHE46       0.0547
     64  CG        91.1420  136.8470   51.3520 C.ar   46  PHE46      -0.0202
     65  CD1       91.8660  136.8910   52.5360 C.ar   46  PHE46      -0.0042
     66  CD2       91.6200  136.0680   50.3050 C.ar   46  PHE46      -0.0042
     67  CE1       93.0510  136.1730   52.6790 C.ar   46  PHE46      -0.0003
     68  CE2       92.8000  135.3460   50.4300 C.ar   46  PHE46      -0.0003
     69  CZ        93.5190  135.3990   51.6220 C.ar   46  PHE46      -0.0000
     70  N         89.0490  138.7740   48.3500 N.am   47  ALA47      -0.1966
     71  CA        89.4550  139.2900   47.0590 C.3    47  ALA47       0.1728
     72  C         89.9930  140.7090   47.1710 C.2    47  ALA47       0.2617
     73  O         89.8090  141.3750   48.1900 O.2    47  ALA47      -0.2715
     74  CB        88.2850  139.2570   46.1080 C.3    47  ALA47       0.0334
     75  N         90.6610  141.1630   46.1140 N.am   48  GLY48      -0.1940
     76  CA        91.2010  142.5070   46.1040 C.3    48  GLY48       0.2014
     77  C         92.6960  142.5790   46.3270 C.2    48  GLY48       0.2639
     78  O         93.4550  141.8040   45.7410 O.2    48  GLY48      -0.2714
     79  N         93.1120  143.5190   47.1760 N.am   49  GLY49      -0.1939
     80  CA        94.5200  143.6900   47.4670 C.3    49  GLY49       0.2014
     81  C         94.9680  142.7890   48.5940 C.2    49  GLY49       0.2639
     82  O         94.3990  142.8280   49.6860 O.2    49  GLY49      -0.2714
     83  N         95.9860  141.9760   48.3250 N.am   50  THR50      -0.1950
     84  CA        96.5280  141.0510   49.3090 C.3    50  THR50       0.1897
     85  C         96.4850  141.6460   50.7160 C.2    50  THR50       0.2313
     86  O         95.9180  141.0620   51.6380 O.2    50  THR50      -0.2863
     87  CB        97.9780  140.7030   48.9800 C.3    50  THR50       0.1794
     88  OG1       98.4330  139.6810   49.8710 O.3    50  THR50      -0.2208
     89  CG2       98.8690  141.9290   49.1340 C.3    50  THR50       0.0378
     90  N         92.8640  142.6850   51.8100 N.3    53  ALA53      -0.1231
     91  CA        91.9770  141.5220   51.8650 C.3    53  ALA53       0.1694
     92  C         92.2490  140.8250   53.1920 C.2    53  ALA53       0.2592
     93  O         91.3390  140.5650   53.9650 O.2    53  ALA53      -0.2718
     94  CB        92.2560  140.5830   50.7090 C.3    53  ALA53       0.0304
     95  N         93.5180  140.5350   53.4500 N.am   54  PHE54      -0.1976
     96  CA        93.9170  139.8940   54.6960 C.3    54  PHE54       0.1639
     97  C         93.4800  140.6950   55.9010 C.2    54  PHE54       0.2290
     98  O         93.0020  140.1320   56.8740 O.2    54  PHE54      -0.2864
     99  CB        95.4350  139.7170   54.7710 C.3    54  PHE54       0.0560
    100  CG        95.9220  138.4810   54.1140 C.ar   54  PHE54      -0.0200
    101  CD1       96.2050  138.4640   52.7580 C.ar   54  PHE54      -0.0042
    102  CD2       96.0400  137.2980   54.8410 C.ar   54  PHE54      -0.0042
    103  CE1       96.5960  137.2810   52.1320 C.ar   54  PHE54      -0.0003
    104  CE2       96.4280  136.1110   54.2270 C.ar   54  PHE54      -0.0003
    105  CZ        96.7050  136.1030   52.8740 C.ar   54  PHE54      -0.0000
    106  N         85.8580  139.2950   42.9570 N.3   124  GLY124     -0.1210
    107  CA        87.1250  139.1810   42.2630 C.3   124  GLY124      0.1956
    108  C         86.9650  139.7160   40.8630 C.2   124  GLY124      0.2612
    109  O         85.8680  140.1090   40.4890 O.2   124  GLY124     -0.2717
    110  N         88.0420  139.7380   40.0870 N.am  125  SER125     -0.1952
    111  CA        87.9860  140.2430   38.7210 C.3   125  SER125      0.1924
    112  C         87.3170  139.2200   37.8230 C.2   125  SER125      0.2314
    113  O         86.6970  139.5700   36.8240 O.2   125  SER125     -0.2863
    114  CB        89.3940  140.5340   38.2040 C.3   125  SER125      0.2116
    115  OG        90.1650  139.3450   38.1500 O.3   125  SER125     -0.2180
    116  N         93.9980  137.3890   35.2740 N.3   162  PHE162     -0.1241
    117  CA        94.4890  137.5140   36.6380 C.3   162  PHE162      0.1605
    118  C         93.9950  136.3700   37.5010 C.2   162  PHE162      0.2264
    119  O         94.1810  136.3830   38.7140 O.2   162  PHE162     -0.2867
    120  CB        94.0510  138.8490   37.2350 C.3   162  PHE162      0.0534
    121  CG        94.6970  140.0320   36.5840 C.ar  162  PHE162     -0.0203
    122  CD1       96.0780  140.1800   36.6090 C.ar  162  PHE162     -0.0042
    123  CD2       93.9390  140.9580   35.8890 C.ar  162  PHE162     -0.0042
    124  CE1       96.6940  141.2270   35.9420 C.ar  162  PHE162     -0.0003
    125  CE2       94.5380  142.0070   35.2170 C.ar  162  PHE162     -0.0003
    126  CZ        95.9230  142.1420   35.2410 C.ar  162  PHE162     -0.0000
@<TRIPOS>BOND
     1   125   126   ar
     2   125   123   ar
     3   126   124   ar
     4   116   117    1
     5   123   121   ar
     6   124   122   ar
     7   121   122   ar
     8   121   120    1
     9   117   120    1
    10   117   118    1
    11   113   112    2
    12    40    41    2
    13    40    39    1
    14    15    14    2
    15    16    14   am
    16   118   119    2
    17   112   111    1
    18    14    13    1
    19    39    38    1
    20   115   114    1
    21   114   111    1
    22    33    32    2
    23   111   110    1
    24    29    28    1
    25    28    25    1
    26    38    32   am
    27    13    12    1
    28    32    31    1
    29    12     9    1
    30   110   108   am
    31     1     2    1
    32    25    26    1
    33    25    24    1
    34     4     3    2
    35   109   108    2
    36    30    26   am
    37    30    31    1
    38    26    27    2
    39   108   107    1
    40    31    34    1
    41    42    43    1
    42     3     2    1
    43    35    37    1
    44    35    34    1
    45    35    36    1
    46     2     5    1
    47    24    19   am
    48     9     8    1
    49     9    10    1
    50    20    19    2
    51    19    18    1
    52    43    44    1
    53    43    46    1
    54    10    11    2
    55    10    17   am
    56   107   106    1
    57    44    45    2
    58    17    18    1
    59     5     6    1
    60     5     7    1
    61    18    21    1
    62    46    47    1
    63    58    57    1
    64    48    49    1
    65    48    47    1
    66    21    22    1
    67    21    23    1
    68    57    56    1
    69    56    55    1
    70    78    77    2
    71    76    75    1
    72    76    77    1
    73    74    71    1
    74    75    72   am
    75    77    79   am
    76    55    54    1
    77    71    72    1
    78    71    70    1
    79    72    73    2
    80    79    80    1
    81    80    81    1
    82    54    51    1
    83    62    61    2
    84    83    81   am
    85    83    84    1
    86    70    61   am
    87    81    82    2
    88    61    60    1
    89    50    51    1
    90    51    52    1
    91    87    89    1
    92    87    84    1
    93    87    88    1
    94    84    85    1
    95    52    53    2
    96    60    59    1
    97    60    63    1
    98    66    68   ar
    99    66    64   ar
   100    68    69   ar
   101    94    91    1
   102    85    86    2
   103    63    64    1
   104    64    65   ar
   105    69    67   ar
   106    90    91    1
   107    91    92    1
   108   103   101   ar
   109   103   105   ar
   110    65    67   ar
   111   101   100   ar
   112   105   104   ar
   113    92    95   am
   114    92    93    2
   115    95    96    1
   116   100    99    1
   117   100   102   ar
   118   104   102   ar
   119    96    99    1
   120    96    97    1
   121    97    98    2
