@<TRIPOS>MOLECULE
tmp/1ofiC00.pdb
 161 154 0 0 0
SMALL
GASTEIGER

@<TRIPOS>ATOM
      1  N         97.9120    9.9550  -35.4930 N.3    15  HIS15      -0.1226
      2  CA        98.6050   11.2150  -35.2310 C.3    15  HIS15       0.1752
      3  C         98.4520   11.5790  -33.7740 C.2    15  HIS15       0.2596
      4  O         99.2510   12.3250  -33.2380 O.2    15  HIS15      -0.2718
      5  CB        98.0230   12.3660  -36.0400 C.3    15  HIS15       0.0759
      6  CG        98.4720   12.4040  -37.4620 C.ar   15  HIS15       0.0818
      7  ND1       97.6380   12.0920  -38.5150 N.ar   15  HIS15      -0.2268
      8  CD2       99.6630   12.7370  -38.0120 C.ar   15  HIS15       0.1154
      9  CE1       98.2960   12.2320  -39.6530 C.ar   15  HIS15       0.1986
     10  NE2       99.5270   12.6230  -39.3760 N.ar   15  HIS15      -0.2212
     11  N         97.4040   11.0860  -33.1330 N.am   16  ILE16      -0.1966
     12  CA        97.2050   11.3910  -31.7220 C.3    16  ILE16       0.1727
     13  C         97.0530   10.1120  -30.9140 C.2    16  ILE16       0.2616
     14  O         96.2940    9.2240  -31.2800 O.2    16  ILE16      -0.2715
     15  CB        95.9450   12.2710  -31.4660 C.3    16  ILE16       0.0290
     16  CG1       96.1410   13.7080  -31.9780 C.3    16  ILE16       0.0022
     17  CG2       95.6750   12.3160  -29.9700 C.3    16  ILE16       0.0023
     18  CD1       96.0510   13.8630  -33.4630 C.3    16  ILE16       0.0001
     19  N         97.7620   10.0330  -29.8020 N.am   17  ILE17      -0.1977
     20  CA        97.7110    8.8560  -28.9560 C.3    17  ILE17       0.1596
     21  C         96.9040    9.1140  -27.7010 C.2    17  ILE17       0.2287
     22  O         97.3510    9.8220  -26.8060 O.2    17  ILE17      -0.2864
     23  CB        99.1270    8.4110  -28.5390 C.3    17  ILE17       0.0276
     24  CG1       99.9520    8.0770  -29.7840 C.3    17  ILE17       0.0022
     25  CG2       99.0500    7.2520  -27.5910 C.3    17  ILE17       0.0022
     26  CD1       99.2290    7.2120  -30.8350 C.3    17  ILE17       0.0001
     27  N         93.1500   10.2280  -25.7520 N.3    19  GLN19      -0.1245
     28  CA        92.0990   11.2310  -25.9130 C.3    19  GLN19       0.1566
     29  C         90.9880   10.7350  -26.8530 C.2    19  GLN19       0.2260
     30  O         90.6500   11.3780  -27.8500 O.2    19  GLN19      -0.2867
     31  CB        92.7070   12.5340  -26.4560 C.3    19  GLN19       0.0367
     32  CG        94.0460   12.9330  -25.8500 C.3    19  GLN19       0.0905
     33  CD        93.9770   13.2420  -24.3620 C.2    19  GLN19       0.2608
     34  OE1       94.9910   13.5370  -23.7380 O.2    19  GLN19      -0.2717
     35  NE2       92.7870   13.1800  -23.7890 N.am   19  GLN19      -0.0878
     36  N         94.7210   19.5330  -19.8550 N.3    57  PRO57      -0.2102
     37  CA        95.9460   20.1670  -19.3750 C.3    57  PRO57       0.1504
     38  C         96.8610   20.4980  -20.5390 C.2    57  PRO57       0.2576
     39  O         96.5300   20.2270  -21.7020 O.2    57  PRO57      -0.2718
     40  CB        96.5510   19.1120  -18.4510 C.3    57  PRO57       0.0282
     41  CG        95.4430   18.0830  -18.2600 C.3    57  PRO57       0.0208
     42  CD        94.7580   18.0910  -19.5830 C.3    57  PRO57       0.0893
     43  N         98.0220   21.0630  -20.2210 N.am   58  THR58      -0.1939
     44  CA        98.9780   21.4670  -21.2470 C.3    58  THR58       0.2028
     45  C         99.4840   20.3410  -22.1390 C.2    58  THR58       0.2643
     46  O         99.8190   19.2480  -21.6770 O.2    58  THR58      -0.2714
     47  CB       100.2000   22.1660  -20.6190 C.3    58  THR58       0.1808
     48  OG1       99.7640   23.0010  -19.5400 O.3    58  THR58      -0.2208
     49  CG2      100.9150   23.0300  -21.6580 C.3    58  THR58       0.0379
     50  N         99.5320   20.6310  -23.4290 N.am   59  GLY59      -0.1939
     51  CA       100.0310   19.6820  -24.4030 C.3    59  GLY59       0.2014
     52  C         99.6770   18.2210  -24.2690 C.2    59  GLY59       0.2639
     53  O        100.4910   17.4400  -23.8240 O.2    59  GLY59      -0.2714
     54  N         98.4680   17.8460  -24.6620 N.am   60  VAL60      -0.1963
     55  CA        98.0450   16.4530  -24.5990 C.3    60  VAL60       0.1727
     56  C         97.2530   16.1070  -25.8510 C.2    60  VAL60       0.2617
     57  O         96.7830   14.9840  -25.9850 O.2    60  VAL60      -0.2715
     58  CB        97.1570   16.1730  -23.3980 C.3    60  VAL60       0.0290
     59  CG1       97.8370   16.6160  -22.1100 C.3    60  VAL60       0.0023
     60  CG2       95.8600   16.8840  -23.5860 C.3    60  VAL60       0.0023
     61  N         97.0960   17.0750  -26.7570 N.am   61  GLY61      -0.1940
     62  CA        96.3940   16.8090  -28.0030 C.3    61  GLY61       0.2014
     63  C         95.3700   17.7980  -28.5420 C.2    61  GLY61       0.2639
     64  O         95.2060   17.9000  -29.7670 O.2    61  GLY61      -0.2714
     65  N         94.6980   18.5270  -27.6460 N.am   62  LYS62      -0.1963
     66  CA        93.6550   19.4910  -28.0280 C.3    62  LYS62       0.1728
     67  C         93.8540   20.2040  -29.3560 C.2    62  LYS62       0.2617
     68  O         93.0520   20.0480  -30.2660 O.2    62  LYS62      -0.2715
     69  CB        93.4410   20.5190  -26.9150 C.3    62  LYS62       0.0311
     70  CG        93.1230   19.8860  -25.5670 C.3    62  LYS62       0.0038
     71  CD        92.3950   20.8460  -24.6430 C.3    62  LYS62       0.0206
     72  CE        93.3320   21.8480  -23.9990 C.3    62  LYS62       0.1093
     73  NZ        94.0870   21.1990  -22.8970 N.3    62  LYS62      -0.1314
     74  N         94.9210   20.9790  -29.4750 N.am   63  THR63      -0.1937
     75  CA        95.1960   21.7030  -30.7120 C.3    63  THR63       0.2028
     76  C         95.5070   20.7540  -31.8630 C.2    63  THR63       0.2642
     77  O         95.0820   20.9740  -33.0040 O.2    63  THR63      -0.2714
     78  CB        96.3960   22.6340  -30.5580 C.3    63  THR63       0.1808
     79  OG1       96.2590   23.4040  -29.3590 O.3    63  THR63      -0.2208
     80  CG2       96.4840   23.5570  -31.7430 C.3    63  THR63       0.0379
     81  N         96.2590   19.7010  -31.5490 N.am   64  GLU64      -0.1976
     82  CA        96.6510   18.7170  -32.5400 C.3    64  GLU64       0.1602
     83  C         95.4090   18.0640  -33.1060 C.2    64  GLU64       0.2287
     84  O         95.2510   17.9730  -34.3270 O.2    64  GLU64      -0.2864
     85  CB        97.5490   17.6660  -31.9040 C.3    64  GLU64       0.0415
     86  CG        98.4010   16.9160  -32.9010 C.3    64  GLU64       0.1163
     87  CD        99.2170   17.8460  -33.7810 C.2    64  GLU64       0.3649
     88  OE1       99.8830   18.7550  -33.2320 O.co2  64  GLU64      -0.2457
     89  OE2       99.1970   17.6660  -35.0210 O.co2  64  GLU64      -0.2457
     90  N         94.0900   29.4730  -35.3010 N.3    79  LYS79      -0.1245
     91  CA        94.1690   29.4030  -33.8520 C.3    79  LYS79       0.1561
     92  C         94.3950   30.7910  -33.2910 C.2    79  LYS79       0.2260
     93  O         95.0930   31.6100  -33.8940 O.2    79  LYS79      -0.2867
     94  CB        95.3140   28.4910  -33.4150 C.3    79  LYS79       0.0271
     95  CG        95.5330   28.4640  -31.9040 C.3    79  LYS79       0.0035
     96  CD        96.4820   27.3500  -31.4990 C.3    79  LYS79       0.0206
     97  CE        96.8010   27.3920  -30.0100 C.3    79  LYS79       0.1093
     98  NZ        97.8270   26.3630  -29.6090 N.3    79  LYS79      -0.1314
     99  N         91.9880   29.3860  -28.3240 N.3   115  ASP115     -0.1239
    100  CA        92.8140   28.8240  -27.2800 C.3   115  ASP115      0.1674
    101  C         92.7100   29.4870  -25.9200 C.2   115  ASP115      0.2266
    102  O         92.4180   30.6750  -25.8150 O.2   115  ASP115     -0.2867
    103  CB        94.2730   28.8070  -27.7300 C.3   115  ASP115      0.1410
    104  CG        95.1530   28.0180  -26.7890 C.2   115  ASP115      0.3668
    105  OD1       94.5920   27.2850  -25.9390 O.co2 115  ASP115     -0.2456
    106  OD2       96.3970   28.1200  -26.9040 O.co2 115  ASP115     -0.2456
    107  N         89.4600   25.3300  -26.3840 N.3   160  SER160     -0.1217
    108  CA        90.0450   24.6270  -25.2420 C.3   160  SER160      0.1889
    109  C         90.3160   25.4470  -23.9910 C.2   160  SER160      0.2288
    110  O         90.2580   26.6810  -23.9960 O.2   160  SER160     -0.2866
    111  CB        91.3640   23.9790  -25.6500 C.3   160  SER160      0.2089
    112  OG        92.4070   24.9480  -25.6660 O.3   160  SER160     -0.2183
    113  N         98.8480   12.9160  -20.3950 N.3   188  LEU188     -0.1245
    114  CA        99.7250   11.8630  -20.8690 C.3   188  LEU188      0.1561
    115  C        100.5500   11.3360  -19.7120 C.2   188  LEU188      0.2260
    116  O        101.0410   12.1160  -18.8950 O.2   188  LEU188     -0.2867
    117  CB       100.6470   12.3800  -21.9810 C.3   188  LEU188      0.0270
    118  CG       100.0940   12.3610  -23.4130 C.3   188  LEU188      0.0019
    119  CD1       98.7780   11.5680  -23.4580 C.3   188  LEU188      0.0001
    120  CD2       99.8830   13.7800  -23.9000 C.3   188  LEU188      0.0001
    121  N        103.9740    7.8350  -28.1570 N.3   196  ILE196     -0.1245
    122  CA       104.0370    9.0270  -28.9840 C.3   196  ILE196      0.1561
    123  C        105.4140    9.1150  -29.6390 C.2   196  ILE196      0.2260
    124  O        105.5530    9.6620  -30.7390 O.2   196  ILE196     -0.2867
    125  CB       103.7710   10.2920  -28.1520 C.3   196  ILE196      0.0252
    126  CG1      102.3390   10.2850  -27.6230 C.3   196  ILE196      0.0019
    127  CG2      103.9910   11.5120  -29.0000 C.3   196  ILE196      0.0019
    128  CD1      102.0580   11.3820  -26.6370 C.3   196  ILE196      0.0001
    129  N        102.8650    7.3840  -33.7680 N.3   200  PRO200     -0.2116
    130  CA       102.3830    8.4950  -34.6060 C.3   200  PRO200      0.1372
    131  C        103.0470    8.6010  -35.9670 C.2   200  PRO200      0.2244
    132  O        104.1860    8.1810  -36.1550 O.2   200  PRO200     -0.2868
    133  CB       102.6520    9.7160  -33.7500 C.3   200  PRO200      0.0268
    134  CG       102.3970    9.2060  -32.3800 C.3   200  PRO200      0.0207
    135  CD       103.0430    7.8260  -32.3740 C.3   200  PRO200      0.0892
    136  N        103.4860   17.0850  -23.4740 N.3   245  ALA245     -0.1231
    137  CA       104.2390   16.2390  -24.3910 C.3   245  ALA245      0.1694
    138  C        105.4070   16.9260  -25.0890 C.2   245  ALA245      0.2591
    139  O        106.2040   16.2600  -25.7510 O.2   245  ALA245     -0.2718
    140  CB       103.2850   15.6420  -25.4420 C.3   245  ALA245      0.0304
    141  N        105.5010   18.2500  -24.9700 N.am  246  ARG246     -0.1980
    142  CA       106.5990   18.9850  -25.6070 C.3   246  ARG246      0.1597
    143  C        107.9190   18.5600  -24.9850 C.2   246  ARG246      0.2287
    144  O        108.9890   18.7150  -25.5820 O.2   246  ARG246     -0.2864
    145  CB       106.4090   20.4970  -25.4490 C.3   246  ARG246      0.0334
    146  CG       105.8590   21.1770  -26.6930 C.3   246  ARG246      0.0492
    147  CD       106.8930   21.1880  -27.8030 C.3   246  ARG246      0.2205
    148  NE       106.2840   21.1890  -29.1300 N.pl3 246  ARG246     -0.0865
    149  CZ       106.9620   21.3420  -30.2640 C.cat 246  ARG246      0.5346
    150  NH1      108.2800   21.5170  -30.2380 N.pl3 246  ARG246      0.1354
    151  NH2      106.3230   21.3030  -31.4300 N.pl3 246  ARG246      0.1354
    152  N        110.1740   16.6620  -26.9890 N.3   249  HIS249     -0.1241
    153  CA       110.9900   17.4840  -27.8700 C.3   249  HIS249      0.1621
    154  C        112.2300   17.9550  -27.1400 C.2   249  HIS249      0.2264
    155  O        113.3320   17.9200  -27.6730 O.2   249  HIS249     -0.2867
    156  CB       110.1710   18.6670  -28.3680 C.3   249  HIS249      0.0745
    157  CG       109.1140   18.2700  -29.3420 C.ar  249  HIS249      0.0817
    158  ND1      109.3980   17.9720  -30.6570 N.ar  249  HIS249     -0.2268
    159  CD2      107.7970   18.0080  -29.1720 C.ar  249  HIS249      0.1154
    160  CE1      108.3020   17.5390  -31.2540 C.ar  249  HIS249      0.1986
    161  NE2      107.3160   17.5500  -30.3740 N.ar  249  HIS249     -0.2212
@<TRIPOS>BOND
     1     9    10   ar
     2     9     7   ar
     3    10     8   ar
     4     7     6   ar
     5     8     6   ar
     6     6     5    1
     7   132   131    2
     8     5     2    1
     9   131   130    1
    10     1     2    1
    11    90    91    1
    12     2     3    1
    13    89    87   ar
    14   130   129    1
    15   130   133    1
    16    84    83    2
    17    93    92    2
    18    91    94    1
    19    91    92    1
    20    87    88   ar
    21    87    86    1
    22     3     4    2
    23     3    11   am
    24   129   135    1
    25   133   134    1
    26    18    16    1
    27    94    95    1
    28    11    12    1
    29    83    82    1
    30    77    76    2
    31    86    85    1
    32    82    85    1
    33    82    81    1
    34   134   135    1
    35    16    15    1
    36    95    96    1
    37    76    81   am
    38    76    75    1
    39    80    78    1
    40    12    15    1
    41    12    13    1
    42    96    97    1
    43    15    17    1
    44   151   149    1
    45    14    13    2
    46   160   158   ar
    47   160   161   ar
    48    13    19   am
    49    26    24    1
    50   124   123    2
    51    75    78    1
    52    75    74    1
    53   158   157   ar
    54    78    79    1
    55   161   159   ar
    56    68    67    2
    57   149   150    1
    58   149   148    2
    59    97    98    1
    60    19    20    1
    61    24    23    1
    62    64    63    2
    63   123   122    1
    64    74    67   am
    65    67    66    1
    66   157   159   ar
    67   157   156    1
    68   148   147    1
    69   127   125    1
    70   122   121    1
    71   122   125    1
    72    20    23    1
    73    20    21    1
    74    63    62    1
    75    63    65   am
    76    23    25    1
    77   156   153    1
    78    99   100    1
    79   125   126    1
    80    66    65    1
    81    66    69    1
    82    62    61    1
    83   153   154    1
    84   153   152    1
    85    30    29    2
    86   147   146    1
    87   103   100    1
    88   103   104    1
    89    21    22    2
    90   155   154    2
    91   126   128    1
    92   100   101    1
    93    69    70    1
    94   106   104   ar
    95    29    28    1
    96   104   105   ar
    97    61    56   am
    98   146   145    1
    99    31    28    1
   100    31    32    1
   101   107   108    1
   102    57    56    2
   103   101   102    2
   104    28    27    1
   105    56    55    1
   106    32    33    1
   107   139   138    2
   108   112   111    1
   109   111   108    1
   110   142   145    1
   111   142   143    1
   112   142   141    1
   113   144   143    2
   114    70    71    1
   115   140   137    1
   116   108   109    1
   117   138   141   am
   118   138   137    1
   119    54    55    1
   120    54    52   am
   121    71    72    1
   122    55    58    1
   123    51    52    1
   124    51    50    1
   125   137   136    1
   126    33    35   am
   127    33    34    2
   128    52    53    2
   129    72    73    1
   130   110   109    2
   131   120   118    1
   132    60    58    1
   133   119   118    1
   134    50    45   am
   135   118   117    1
   136    58    59    1
   137    45    46    2
   138    45    44    1
   139   117   114    1
   140    39    38    2
   141    49    47    1
   142    44    47    1
   143    44    43    1
   144   114   113    1
   145   114   115    1
   146    47    48    1
   147    38    43   am
   148    38    37    1
   149    36    42    1
   150    36    37    1
   151   115   116    2
   152    42    41    1
   153    37    40    1
   154    40    41    1
