@<TRIPOS>MOLECULE
tmp/1oflA01.pdb
 166 160 0 0 0
SMALL
GASTEIGER

@<TRIPOS>ATOM
      1  N         33.2270   20.1070   -2.4570 N.3   187  ASN187     -0.1240
      2  CA        32.7110   19.5850   -1.1850 C.3   187  ASN187      0.1653
      3  C         33.5100   18.3140   -0.8150 C.2   187  ASN187      0.2266
      4  O         33.0260   17.1530   -0.9220 O.2   187  ASN187     -0.2867
      5  CB        31.1970   19.2860   -1.3120 C.3   187  ASN187      0.1155
      6  CG        30.5300   19.0600    0.0310 C.2   187  ASN187      0.2627
      7  OD1       31.1970   18.9670    1.0550 O.2   187  ASN187     -0.2716
      8  ND2       29.2000   18.9130    0.0200 N.am  187  ASN187     -0.0877
      9  N         38.2120   22.0600    3.1350 N.3   217  GLU217     -0.1231
     10  CA        37.0250   22.4730    2.3610 C.3   217  GLU217      0.1699
     11  C         36.2970   23.5690    3.1540 C.2   217  GLU217      0.2592
     12  O         36.8620   24.1190    4.1070 O.2   217  GLU217     -0.2718
     13  CB        36.1150   21.2490    2.1200 C.3   217  GLU217      0.0402
     14  CG        35.5260   20.6910    3.4220 C.3   217  GLU217      0.1161
     15  CD        34.0450   20.3690    3.2830 C.2   217  GLU217      0.3649
     16  OE1       33.6930   19.3130    2.7170 O.co2 217  GLU217     -0.2457
     17  OE2       33.1900   21.1560    3.7780 O.co2 217  GLU217     -0.2457
     18  N         35.0710   23.9260    2.7410 N.am  218  ALA218     -0.1966
     19  CA        34.3750   25.0440    3.4150 C.3   218  ALA218      0.1728
     20  C         34.1360   24.8310    4.8990 C.2   218  ALA218      0.2616
     21  O         34.1150   25.8070    5.6610 O.2   218  ALA218     -0.2715
     22  CB        33.0210   25.2850    2.7260 C.3   218  ALA218      0.0334
     23  N         33.9750   23.5740    5.3110 N.am  219  GLU219     -0.1977
     24  CA        33.5640   23.2910    6.6960 C.3   219  GLU219      0.1602
     25  C         34.7320   22.7600    7.4700 C.2   219  GLU219      0.2287
     26  O         35.2980   21.6730    7.1440 O.2   219  GLU219     -0.2864
     27  CB        32.3900   22.2700    6.7300 C.3   219  GLU219      0.0415
     28  CG        31.2650   22.7000    5.7260 C.3   219  GLU219      0.1163
     29  CD        30.0890   21.7570    5.8160 C.2   219  GLU219      0.3649
     30  OE1       30.0740   20.7380    5.0570 O.co2 219  GLU219     -0.2457
     31  OE2       29.2000   22.0400    6.6630 O.co2 219  GLU219     -0.2457
     32  N         26.5610   17.5790   12.3250 N.3   224  LYS224     -0.1245
     33  CA        25.3000   17.1010   11.7100 C.3   224  LYS224      0.1561
     34  C         24.5310   16.1960   12.6960 C.2   224  LYS224      0.2260
     35  O         23.9590   15.1460   12.2980 O.2   224  LYS224     -0.2867
     36  CB        25.5560   16.3570   10.4030 C.3   224  LYS224      0.0271
     37  CG        26.1400   17.2570    9.3010 C.3   224  LYS224      0.0035
     38  CD        26.4790   16.3670    8.0720 C.3   224  LYS224      0.0206
     39  CE        26.6160   17.2670    6.8640 C.3   224  LYS224      0.1093
     40  NZ        26.5970   16.4070    5.6050 N.3   224  LYS224     -0.1314
     41  N         30.7000   24.6490   11.7460 N.3   243  ASN243     -0.1240
     42  CA        29.2930   24.6960   11.3710 C.3   243  ASN243      0.1653
     43  C         28.3630   23.8180   12.2160 C.2   243  ASN243      0.2266
     44  O         28.6720   22.6420   12.4570 O.2   243  ASN243     -0.2867
     45  CB        29.1430   24.2040    9.9400 C.3   243  ASN243      0.1155
     46  CG        29.6860   25.1720    8.8910 C.2   243  ASN243      0.2627
     47  OD1       30.1550   26.2710    9.1710 O.2   243  ASN243     -0.2716
     48  ND2       29.5960   24.7400    7.6520 N.am  243  ASN243     -0.0877
     49  N         25.5670   22.3210   11.0670 N.3   245  ARG245     -0.1231
     50  CA        25.0480   22.1060    9.6960 C.3   245  ARG245      0.1694
     51  C         23.6820   21.4270    9.7320 C.2   245  ARG245      0.2592
     52  O         22.7560   21.8220    9.0140 O.2   245  ARG245     -0.2718
     53  CB        26.0200   21.2210    8.8970 C.3   245  ARG245      0.0321
     54  CG        25.5470   20.9300    7.4700 C.3   245  ARG245      0.0489
     55  CD        25.3720   22.1810    6.6130 C.3   245  ARG245      0.2205
     56  NE        24.6900   21.7650    5.3580 N.pl3 245  ARG245     -0.0865
     57  CZ        23.3740   21.7180    5.2090 C.cat 245  ARG245      0.5346
     58  NH1       22.5420   22.0490    6.2080 N.pl3 245  ARG245      0.1354
     59  NH2       22.8730   21.3090    4.0350 N.pl3 245  ARG245      0.1354
     60  N         23.5450   20.3730   10.5380 N.am  246  HIS246     -0.1976
     61  CA        22.2020   19.7660   10.7640 C.3   246  HIS246      0.1656
     62  C         22.0450   19.4730   12.2350 C.2   246  HIS246      0.2291
     63  O         23.0290   19.2000   12.9250 O.2   246  HIS246     -0.2864
     64  CB        22.0630   18.3910   10.0580 C.3   246  HIS246      0.0771
     65  CG        22.0560   18.4700    8.5550 C.ar  246  HIS246      0.0820
     66  ND1       21.0530   19.1060    7.8570 N.ar  246  HIS246     -0.2267
     67  CD2       22.8730   17.9120    7.6280 C.ar  246  HIS246      0.1154
     68  CE1       21.3050   19.0160    6.5500 C.ar  246  HIS246      0.1986
     69  NE2       22.3700   18.2460    6.3790 N.ar  246  HIS246     -0.2212
     70  N         29.2330   29.0350   10.6930 N.3   270  PHE270     -0.1241
     71  CA        27.9900   29.1230    9.8820 C.3   270  PHE270      0.1605
     72  C         26.9760   28.2140   10.5450 C.2   270  PHE270      0.2264
     73  O         27.2560   27.0400   10.8020 O.2   270  PHE270     -0.2867
     74  CB        28.2620   28.6820    8.4210 C.3   270  PHE270      0.0534
     75  CG        27.2860   29.2660    7.3610 C.ar  270  PHE270     -0.0203
     76  CD1       25.9520   28.9700    7.3150 C.ar  270  PHE270     -0.0042
     77  CD2       27.8170   30.1340    6.3910 C.ar  270  PHE270     -0.0042
     78  CE1       25.1380   29.4930    6.2780 C.ar  270  PHE270     -0.0003
     79  CE2       27.0290   30.6730    5.3760 C.ar  270  PHE270     -0.0003
     80  CZ        25.6910   30.3780    5.3200 C.ar  270  PHE270     -0.0000
     81  N         23.0530   26.6460   10.9700 N.3   272  TRP272     -0.1241
     82  CA        21.7270   26.2870   10.5250 C.3   272  TRP272      0.1605
     83  C         20.9500   25.8230   11.7280 C.2   272  TRP272      0.2264
     84  O         21.5340   25.3720   12.7230 O.2   272  TRP272     -0.2867
     85  CB        21.8160   25.1050    9.5490 C.3   272  TRP272      0.0550
     86  CG        22.3980   25.3350    8.1790 C.ar  272  TRP272      0.0003
     87  CD1       21.6820   25.3250    7.0030 C.ar  272  TRP272      0.0946
     88  CD2       23.7860   25.4180    7.8090 C.ar  272  TRP272      0.0152
     89  NE1       22.5420   25.4230    5.9240 N.ar  272  TRP272     -0.2442
     90  CE2       23.8350   25.5270    6.3930 C.ar  272  TRP272      0.0810
     91  CE3       25.0110   25.4730    8.5270 C.ar  272  TRP272      0.0012
     92  CZ2       25.0310   25.6050    5.6840 C.ar  272  TRP272      0.0191
     93  CZ3       26.1880   25.5780    7.8190 C.ar  272  TRP272      0.0001
     94  CH2       26.1900   25.6620    6.3940 C.ar  272  TRP272      0.0015
     95  N         31.1870   33.1590    1.3060 N.3   292  ARG292     -0.1245
     96  CA        30.1320   32.9550    2.2840 C.3   292  ARG292      0.1563
     97  C         29.4020   34.2430    2.6240 C.2   292  ARG292      0.2260
     98  O         28.3080   34.2000    3.2370 O.2   292  ARG292     -0.2867
     99  CB        30.6790   32.3700    3.5930 C.3   292  ARG292      0.0307
    100  CG        31.4250   31.0720    3.4970 C.3   292  ARG292      0.0489
    101  CD        30.5310   29.9460    3.0230 C.3   292  ARG292      0.2205
    102  NE        30.7210   29.8780    1.5830 N.pl3 292  ARG292     -0.0865
    103  CZ        30.1850   28.9520    0.8020 C.cat 292  ARG292      0.5346
    104  NH1       29.3470   28.0620    1.2960 N.pl3 292  ARG292      0.1354
    105  NH2       30.4430   28.9840   -0.4900 N.pl3 292  ARG292      0.1354
    106  N         16.5290   20.7490    4.8630 N.3   307  GLU307     -0.1231
    107  CA        17.8860   20.3700    4.5120 C.3   307  GLU307      0.1699
    108  C         18.8290   21.5590    4.6560 C.2   307  GLU307      0.2592
    109  O         20.0160   21.3830    4.8870 O.2   307  GLU307     -0.2718
    110  CB        17.8650   19.8380    3.0680 C.3   307  GLU307      0.0402
    111  CG        19.1970   19.7680    2.3240 C.3   307  GLU307      0.1161
    112  CD        20.1440   18.6890    2.8590 C.2   307  GLU307      0.3649
    113  OE1       19.7060   17.7750    3.6040 O.co2 307  GLU307     -0.2457
    114  OE2       21.3480   18.7820    2.5300 O.co2 307  GLU307     -0.2457
    115  N         18.2860   22.7600    4.5410 N.am  308  HIS308     -0.1976
    116  CA        19.0330   23.9900    4.8600 C.3   308  HIS308      0.1656
    117  C         18.2380   24.7580    5.8960 C.2   308  HIS308      0.2291
    118  O         17.5920   25.7910    5.6470 O.2   308  HIS308     -0.2864
    119  CB        19.2600   24.8180    3.6070 C.3   308  HIS308      0.0771
    120  CG        20.4310   24.3500    2.8200 C.ar  308  HIS308      0.0820
    121  ND1       21.7270   24.5170    3.2620 N.ar  308  HIS308     -0.2267
    122  CD2       20.5140   23.7270    1.6230 C.ar  308  HIS308      0.1154
    123  CE1       22.5670   24.0040    2.3700 C.ar  308  HIS308      0.1986
    124  NE2       21.8510   23.5070    1.3730 N.ar  308  HIS308     -0.2212
    125  N         23.9360   33.7610    1.6210 N.3   334  LEU334     -0.1245
    126  CA        23.5200   32.8540    0.5530 C.3   334  LEU334      0.1561
    127  C         22.0140   32.8530    0.3350 C.2   334  LEU334      0.2260
    128  O         21.4450   31.8380   -0.0330 O.2   334  LEU334     -0.2867
    129  CB        24.0310   31.4050    0.8130 C.3   334  LEU334      0.0270
    130  CG        25.5260   31.3760    1.1370 C.3   334  LEU334      0.0019
    131  CD1       25.9550   29.9700    1.5050 C.3   334  LEU334      0.0001
    132  CD2       26.3410   31.9090   -0.0330 C.3   334  LEU334      0.0001
    133  N         20.6000   31.5590   -3.1530 N.3   337  ARG337     -0.1231
    134  CA        20.6260   30.0870   -3.3090 C.3   337  ARG337      0.1694
    135  C         19.5390   29.4470   -2.4610 C.2   337  ARG337      0.2591
    136  O         18.9170   28.4720   -2.8470 O.2   337  ARG337     -0.2718
    137  CB        21.9160   29.4930   -2.7410 C.3   337  ARG337      0.0321
    138  CG        23.1510   29.8890   -3.3330 C.3   337  ARG337      0.0489
    139  CD        24.2480   29.0330   -2.7080 C.3   337  ARG337      0.2205
    140  NE        25.5280   29.4380   -3.2050 N.pl3 337  ARG337     -0.0865
    141  CZ        26.6800   28.9510   -2.8120 C.cat 337  ARG337      0.5346
    142  NH1       26.7450   28.0180   -1.8470 N.pl3 337  ARG337      0.1354
    143  NH2       27.7740   29.4270   -3.3840 N.pl3 337  ARG337      0.1354
    144  N         19.3420   29.9740   -1.2530 N.am  338  ARG338     -0.1980
    145  CA        18.3290   29.4010   -0.3860 C.3   338  ARG338      0.1597
    146  C         16.8920   29.6060   -0.9170 C.2   338  ARG338      0.2287
    147  O         16.0340   28.7390   -0.7250 O.2   338  ARG338     -0.2864
    148  CB        18.4550   30.0130    1.0090 C.3   338  ARG338      0.0334
    149  CG        19.7290   29.6000    1.7260 C.3   338  ARG338      0.0492
    150  CD        19.8180   28.1110    2.1300 C.3   338  ARG338      0.2205
    151  NE        21.0610   28.0250    2.9120 N.pl3 338  ARG338     -0.0865
    152  CZ        22.2270   27.6180    2.4140 C.cat 338  ARG338      0.5346
    153  NH1       22.3070   27.1700    1.1640 N.pl3 338  ARG338      0.1354
    154  NH2       23.3270   27.6350    3.1710 N.pl3 338  ARG338      0.1354
    155  N         16.4000   26.8520   -3.4350 N.3   341  TYR341     -0.1241
    156  CA        16.1180   25.5930   -2.7450 C.3   341  TYR341      0.1605
    157  C         14.6570   25.5640   -2.2810 C.2   341  TYR341      0.2264
    158  O         13.9460   24.5510   -2.4620 O.2   341  TYR341     -0.2867
    159  CB        17.1030   25.3290   -1.5610 C.3   341  TYR341      0.0534
    160  CG        16.6730   24.2250   -0.6260 C.ar  341  TYR341     -0.0201
    161  CD1       16.9690   22.8580   -0.8870 C.ar  341  TYR341     -0.0009
    162  CD2       15.9200   24.5230    0.5180 C.ar  341  TYR341     -0.0009
    163  CE1       16.5090   21.8270    0.0090 C.ar  341  TYR341      0.0417
    164  CE2       15.4720   23.5030    1.3880 C.ar  341  TYR341      0.0417
    165  CZ        15.7640   22.2020    1.1440 C.ar  341  TYR341      0.1957
    166  OH        15.2710   21.2750    2.0590 O.3   341  TYR341     -0.2866
@<TRIPOS>BOND
     1   155   156    1
     2   143   141    1
     3   138   137    1
     4   138   139    1
     5   134   133    1
     6   134   137    1
     7   134   135    1
     8   140   141    2
     9   140   139    1
    10   136   135    2
    11   141   142    1
    12   156   157    1
    13   156   159    1
    14   158   157    2
    15   135   144   am
    16     1     2    1
    17   159   160    1
    18     5     2    1
    19     5     6    1
    20   144   145    1
    21     2     3    1
    22     4     3    2
    23   146   147    2
    24   146   145    1
    25   161   160   ar
    26   161   163   ar
    27   160   162   ar
    28   105   103    1
    29   145   148    1
    30   128   127    2
    31   132   130    1
    32   163   165   ar
    33     8     6   am
    34     6     7    2
    35   127   126    1
    36   162   164   ar
    37   126   129    1
    38   126   125    1
    39   103   104    1
    40   103   102    2
    41   129   130    1
    42   148   149    1
    43   130   131    1
    44   165   164   ar
    45   165   166    1
    46   153   152    1
    47    95    96    1
    48   124   122   ar
    49   124   123   ar
    50   102   101    1
    51   122   120   ar
    52   149   150    1
    53    13    10    1
    54    13    14    1
    55   150   151    1
    56    96    97    1
    57    96    99    1
    58   111   112    1
    59   111   110    1
    60    10     9    1
    61    10    11    1
    62   123   121   ar
    63   152   151    2
    64   152   154    1
    65   114   112   ar
    66    97    98    2
    67    16    15   ar
    68    22    19    1
    69    18    11   am
    70    18    19    1
    71   120   121   ar
    72   120   119    1
    73   112   113   ar
    74   101   100    1
    75   110   107    1
    76    11    12    2
    77    15    14    1
    78    15    17   ar
    79    19    20    1
    80   100    99    1
    81   119   116    1
    82    59    57    1
    83   107   108    1
    84   107   106    1
    85   115   108   am
    86   115   116    1
    87   108   109    2
    88   116   117    1
    89    20    23   am
    90    20    21    2
    91    30    29   ar
    92    57    56    2
    93    57    58    1
    94    23    24    1
    95    80    79   ar
    96    80    78   ar
    97    56    55    1
    98    79    77   ar
    99    40    39    1
   100   118   117    2
   101    92    90   ar
   102    92    94   ar
   103    28    29    1
   104    28    27    1
   105    29    31   ar
   106    89    90   ar
   107    89    87   ar
   108    78    76   ar
   109    69    68   ar
   110    69    67   ar
   111    77    75   ar
   112    90    88   ar
   113    94    93   ar
   114    68    66   ar
   115    55    54    1
   116    24    27    1
   117    24    25    1
   118    39    38    1
   119    87    86   ar
   120    26    25    2
   121    76    75   ar
   122    75    74    1
   123    54    53    1
   124    67    65   ar
   125    48    46   am
   126    88    86   ar
   127    88    91   ar
   128    93    91   ar
   129    66    65   ar
   130    38    37    1
   131    86    85    1
   132    74    71    1
   133    65    64    1
   134    46    47    2
   135    46    45    1
   136    53    50    1
   137    52    51    2
   138    37    36    1
   139    85    82    1
   140    50    51    1
   141    50    49    1
   142    51    60   am
   143    71    72    1
   144    71    70    1
   145    45    42    1
   146    64    61    1
   147    36    33    1
   148    82    81    1
   149    82    83    1
   150    60    61    1
   151    72    73    2
   152    61    62    1
   153    42    41    1
   154    42    43    1
   155    33    32    1
   156    33    34    1
   157    83    84    2
   158    43    44    2
   159    62    63    2
   160    35    34    2
