@<TRIPOS>MOLECULE
tmp/1oflA04.pdb
 116 115 0 0 0
SMALL
GASTEIGER

@<TRIPOS>ATOM
      1  N         33.5990    2.4010   23.9950 N.3   101  TYR101     -0.1227
      2  CA        34.5790    2.5660   25.0630 C.3   101  TYR101      0.1736
      3  C         36.0360    2.3800   24.5750 C.2   101  TYR101      0.2595
      4  O         36.8680    1.8590   25.3070 O.2   101  TYR101     -0.2718
      5  CB        34.2500    1.6100   26.2310 C.3   101  TYR101      0.0548
      6  CG        33.0260    2.0910   26.9470 C.ar  101  TYR101     -0.0200
      7  CD1       33.1270    3.2350   27.7300 C.ar  101  TYR101     -0.0009
      8  CD2       31.8080    1.4560   26.8480 C.ar  101  TYR101     -0.0009
      9  CE1       32.0480    3.7810   28.3910 C.ar  101  TYR101      0.0417
     10  CE2       30.6790    1.9750   27.5430 C.ar  101  TYR101      0.0417
     11  CZ        30.8290    3.1370   28.3210 C.ar  101  TYR101      0.1957
     12  OH        29.8140    3.7820   29.0170 O.3   101  TYR101     -0.2866
     13  N         36.3200    2.8280   23.3450 N.am  102  ASN102     -0.1960
     14  CA        37.6700    2.7520   22.7730 C.3   102  ASN102      0.1819
     15  C         38.3260    4.1120   22.6860 C.2   102  ASN102      0.2621
     16  O         37.6400    5.1310   22.5660 O.2   102  ASN102     -0.2715
     17  CB        37.6160    2.0910   21.3820 C.3   102  ASN102      0.1195
     18  CG        37.2790    0.6180   21.4800 C.2   102  ASN102      0.2630
     19  OD1       37.6370   -0.0210   22.4660 O.2   102  ASN102     -0.2716
     20  ND2       36.5030    0.0900   20.5200 N.am  102  ASN102     -0.0877
     21  N         39.6510    4.1330   22.7810 N.am  103  ARG103     -0.1977
     22  CA        40.4030    5.3970   22.8150 C.3   103  ARG103      0.1597
     23  C         41.5990    5.2960   21.8670 C.2   103  ARG103      0.2287
     24  O         42.3430    4.2810   21.9000 O.2   103  ARG103     -0.2864
     25  CB        40.8850    5.6690   24.2590 C.3   103  ARG103      0.0334
     26  CG        41.7360    6.9390   24.3840 C.3   103  ARG103      0.0492
     27  CD        42.1970    7.1640   25.8470 C.3   103  ARG103      0.2205
     28  NE        42.9310    8.4280   25.9570 N.pl3 103  ARG103     -0.0865
     29  CZ        43.7010    8.7420   26.9870 C.cat 103  ARG103      0.5346
     30  NH1       43.8580    7.8330   27.9630 N.pl3 103  ARG103      0.1354
     31  NH2       44.3730    9.8950   27.0160 N.pl3 103  ARG103      0.1354
     32  N         30.7720    6.3400   23.3960 N.3   133  HIS133     -0.1226
     33  CA        31.7110    6.5900   24.4890 C.3   133  HIS133      0.1752
     34  C         33.1890    6.3720   24.0800 C.2   133  HIS133      0.2596
     35  O         33.9940    5.8470   24.8750 O.2   133  HIS133     -0.2718
     36  CB        31.3880    5.7000   25.7390 C.3   133  HIS133      0.0759
     37  CG        29.9830    5.8560   26.2640 C.ar  133  HIS133      0.0818
     38  ND1       29.5590    6.9760   26.9600 N.ar  133  HIS133     -0.2268
     39  CD2       28.9220    5.0150   26.2180 C.ar  133  HIS133      0.1154
     40  CE1       28.2800    6.8230   27.2920 C.ar  133  HIS133      0.1986
     41  NE2       27.8730    5.6460   26.8480 N.ar  133  HIS133     -0.2212
     42  N         33.5400    6.7310   22.8260 N.am  134  CYS134     -0.1956
     43  CA        34.9320    6.6480   22.4000 C.3   134  CYS134      0.1843
     44  C         35.6520    7.9720   22.5440 C.2   134  CYS134      0.2625
     45  O         35.0090    9.0330   22.5930 O.2   134  CYS134     -0.2714
     46  CB        35.0270    6.1660   20.9520 C.3   134  CYS134      0.0997
     47  SG        34.3760    4.4740   20.7690 S.3   134  CYS134     -0.0797
     48  N         36.9790    7.9260   22.6350 N.am  135  ARG135     -0.1977
     49  CA        37.7600    9.1670   22.6900 C.3   135  ARG135      0.1597
     50  C         38.9040    9.1830   21.7010 C.2   135  ARG135      0.2287
     51  O         39.5830    8.1420   21.5240 O.2   135  ARG135     -0.2864
     52  CB        38.3110    9.3480   24.1110 C.3   135  ARG135      0.0334
     53  CG        39.1550   10.5840   24.3370 C.3   135  ARG135      0.0492
     54  CD        39.4670   10.7940   25.8250 C.3   135  ARG135      0.2205
     55  NE        40.2560   11.9970   26.0270 N.pl3 135  ARG135     -0.0865
     56  CZ        41.1740   12.1300   26.9950 C.cat 135  ARG135      0.5346
     57  NH1       41.3860   11.1380   27.8550 N.pl3 135  ARG135      0.1354
     58  NH2       41.8960   13.2420   27.0850 N.pl3 135  ARG135      0.1354
     59  N         28.1040   10.1310   22.5300 N.3   171  TYR171     -0.1227
     60  CA        28.9040   10.4440   23.7400 C.3   171  TYR171      0.1736
     61  C         30.4140   10.2610   23.5490 C.2   171  TYR171      0.2595
     62  O         31.1340    9.8260   24.4630 O.2   171  TYR171     -0.2718
     63  CB        28.4530    9.5790   24.9320 C.3   171  TYR171      0.0548
     64  CG        26.9840    9.6530   25.2350 C.ar  171  TYR171     -0.0200
     65  CD1       26.4320   10.7990   25.8110 C.ar  171  TYR171     -0.0009
     66  CD2       26.1560    8.5360   25.0060 C.ar  171  TYR171     -0.0009
     67  CE1       25.0780   10.8560   26.1030 C.ar  171  TYR171      0.0417
     68  CE2       24.7900    8.5810   25.2800 C.ar  171  TYR171      0.0417
     69  CZ        24.2720    9.7470   25.8200 C.ar  171  TYR171      0.1957
     70  OH        22.9220    9.8130   26.1170 O.3   171  TYR171     -0.2866
     71  N         30.9080   10.6260   22.3800 N.am  172  HIS172     -0.1961
     72  CA        32.3690   10.5940   22.1600 C.3   172  HIS172      0.1787
     73  C         33.0290   11.8690   22.6410 C.2   172  HIS172      0.2620
     74  O         32.3820   12.8540   22.9190 O.2   172  HIS172     -0.2715
     75  CB        32.7080   10.4550   20.6540 C.3   172  HIS172      0.0785
     76  CG        32.0970    9.2660   20.0040 C.ar  172  HIS172      0.0821
     77  ND1       32.1470    7.9940   20.5460 N.ar  172  HIS172     -0.2267
     78  CD2       31.4020    9.1610   18.8480 C.ar  172  HIS172      0.1154
     79  CE1       31.4760    7.1710   19.7610 C.ar  172  HIS172      0.1986
     80  NE2       31.0290    7.8530   18.7180 N.ar  172  HIS172     -0.2212
     81  N         34.3610   11.8470   22.7290 N.am  173  ARG173     -0.1977
     82  CA        35.1190   13.0840   22.9680 C.3   173  ARG173      0.1597
     83  C         36.2670   13.1580   21.9570 C.2   173  ARG173      0.2287
     84  O         36.9680   12.1590   21.6940 O.2   173  ARG173     -0.2864
     85  CB        35.6580   13.1350   24.3840 C.3   173  ARG173      0.0334
     86  CG        36.3070   14.4570   24.7120 C.3   173  ARG173      0.0492
     87  CD        36.9060   14.4670   26.1770 C.3   173  ARG173      0.2205
     88  NE        37.6100   15.7190   26.4680 N.pl3 173  ARG173     -0.0865
     89  CZ        38.5330   15.8740   27.4140 C.cat 173  ARG173      0.5346
     90  NH1       38.8840   14.8230   28.1650 N.pl3 173  ARG173      0.1354
     91  NH2       39.0760   17.0680   27.6400 N.pl3 173  ARG173      0.1354
     92  N         31.4610   15.6340   22.8500 N.3   205  LEU205     -0.1245
     93  CA        32.2230   16.7900   23.3330 C.3   205  LEU205      0.1561
     94  C         33.4840   16.9650   22.4670 C.2   205  LEU205      0.2260
     95  O         34.2540   16.0460   22.3120 O.2   205  LEU205     -0.2867
     96  CB        32.6320   16.5440   24.8010 C.3   205  LEU205      0.0270
     97  CG        33.5580   17.5820   25.4550 C.3   205  LEU205      0.0019
     98  CD1       32.9310   18.9850   25.5470 C.3   205  LEU205      0.0001
     99  CD2       33.9430   17.0770   26.9020 C.3   205  LEU205      0.0001
    100  N         25.1040   13.7080   29.6900 N.3   421  GLY421     -0.1210
    101  CA        26.3050   12.9570   29.3400 C.3   421  GLY421      0.1956
    102  C         27.5490   13.8130   29.1490 C.2   421  GLY421      0.2612
    103  O         28.6390   13.2950   28.9340 O.2   421  GLY421     -0.2717
    104  N         27.4200   15.1490   29.2170 N.am  422  ILE422     -0.1965
    105  CA        28.6050   15.9740   29.0810 C.3   422  ILE422      0.1727
    106  C         28.7800   16.7820   30.3600 C.2   422  ILE422      0.2616
    107  O         27.9480   17.6200   30.6570 O.2   422  ILE422     -0.2715
    108  CB        28.4950   16.8660   27.8170 C.3   422  ILE422      0.0290
    109  CG1       28.6010   15.9780   26.5620 C.3   422  ILE422      0.0022
    110  CG2       29.6070   17.9550   27.8170 C.3   422  ILE422      0.0023
    111  CD1       28.3330   16.7190   25.2740 C.3   422  ILE422      0.0001
    112  N         29.8720   16.5430   31.0910 N.am  423  ALA423     -0.1977
    113  CA        30.0610   17.1430   32.4460 C.3   423  ALA423      0.1597
    114  C         30.5800   18.5740   32.3970 C.2   423  ALA423      0.2287
    115  O         31.6850   18.8760   32.8660 O.2   423  ALA423     -0.2864
    116  CB        31.0160   16.2300   33.2840 C.3   423  ALA423      0.0319
@<TRIPOS>BOND
     1    80    78   ar
     2    80    79   ar
     3    78    76   ar
     4    79    77   ar
     5    76    77   ar
     6    76    75    1
     7    20    18   am
     8    75    72    1
     9    47    46    1
    10    46    43    1
    11    17    18    1
    12    17    14    1
    13    18    19    2
    14    51    50    2
    15    84    83    2
    16    50    49    1
    17    23    24    2
    18    23    22    1
    19    83    82    1
    20    72    71    1
    21    72    73    1
    22    95    94    2
    23    71    61   am
    24    43    44    1
    25    43    42    1
    26    94    93    1
    27    59    60    1
    28    44    45    2
    29    44    48   am
    30    16    15    2
    31    48    49    1
    32    73    81   am
    33    73    74    2
    34    15    14    1
    35    15    21   am
    36    49    52    1
    37    81    82    1
    38    14    13    1
    39    21    22    1
    40    22    25    1
    41    42    34   am
    42    92    93    1
    43    82    85    1
    44    93    96    1
    45    13     3   am
    46    32    33    1
    47    61    60    1
    48    61    62    2
    49    60    63    1
    50     1     2    1
    51    34    33    1
    52    34    35    2
    53    52    53    1
    54    25    26    1
    55    53    54    1
    56    26    27    1
    57    85    86    1
    58    33    36    1
    59     3     2    1
    60     3     4    2
    61    86    87    1
    62    96    97    1
    63    63    64    1
    64    66    64   ar
    65    66    68   ar
    66     2     5    1
    67    64    65   ar
    68   111   109    1
    69    68    69   ar
    70    97    98    1
    71    97    99    1
    72    36    37    1
    73    65    67   ar
    74    69    67   ar
    75    69    70    1
    76    54    55    1
    77    27    28    1
    78    28    29    2
    79    55    56    2
    80    87    88    1
    81    39    37   ar
    82    39    41   ar
    83     5     6    1
    84    37    38   ar
    85    88    89    2
    86   109   108    1
    87    41    40   ar
    88     8     6   ar
    89     8    10   ar
    90     6     7   ar
    91    38    40   ar
    92    29    31    1
    93    29    30    1
    94    56    58    1
    95    56    57    1
    96    89    91    1
    97    89    90    1
    98    10    11   ar
    99     7     9   ar
   100   110   108    1
   101   108   105    1
   102    11     9   ar
   103    11    12    1
   104   103   102    2
   105   105   104    1
   106   105   106    1
   107   102   104   am
   108   102   101    1
   109   101   100    1
   110   106   107    2
   111   106   112   am
   112   112   113    1
   113   114   113    1
   114   114   115    2
   115   113   116    1
