@<TRIPOS>MOLECULE
tmp/1oflA02.pdb
 179 171 0 0 0
SMALL
GASTEIGER

@<TRIPOS>ATOM
      1  N         35.3550    7.6320    0.4430 N.3    89  SER89      -0.1202
      2  CA        34.8130    8.5960    1.3850 C.3    89  SER89       0.2020
      3  C         33.5310    7.9940    1.9230 C.2    89  SER89       0.2618
      4  O         32.8370    7.2670    1.1940 O.2    89  SER89      -0.2717
      5  CB        34.5600    9.9470    0.7080 C.3    89  SER89       0.2103
      6  OG        35.7860   10.4280    0.2090 O.3    89  SER89      -0.2182
      7  N         33.1860    8.2870    3.1840 N.am   90  HIS90      -0.1975
      8  CA        31.9780    7.7560    3.8960 C.3    90  HIS90       0.1656
      9  C         32.1120    6.2680    4.2480 C.2    90  HIS90       0.2291
     10  O         31.1250    5.6340    4.7190 O.2    90  HIS90      -0.2864
     11  CB        30.6860    7.9430    3.0960 C.3    90  HIS90       0.0771
     12  CG        30.4370    9.3620    2.7150 C.ar   90  HIS90       0.0820
     13  ND1       29.6660   10.2050    3.4930 N.ar   90  HIS90      -0.2267
     14  CD2       30.8600   10.0930    1.6550 C.ar   90  HIS90       0.1154
     15  CE1       29.6280   11.4030    2.9200 C.ar   90  HIS90       0.1986
     16  NE2       30.3400   11.3670    1.8080 N.ar   90  HIS90      -0.2212
     17  N         40.2360   12.7930   -0.2320 N.3   147  PHE147     -0.1227
     18  CA        38.8610   13.1700    0.0980 C.3   147  PHE147      0.1736
     19  C         38.3350   12.5290    1.3980 C.2   147  PHE147      0.2595
     20  O         38.9420   11.5670    1.9400 O.2   147  PHE147     -0.2718
     21  CB        37.9720   12.9040   -1.1270 C.3   147  PHE147      0.0547
     22  CG        38.3590   13.7800   -2.3110 C.ar  147  PHE147     -0.0202
     23  CD1       39.3520   13.3930   -3.2200 C.ar  147  PHE147     -0.0042
     24  CD2       37.7670   15.0510   -2.4300 C.ar  147  PHE147     -0.0042
     25  CE1       39.7380   14.2440   -4.2870 C.ar  147  PHE147     -0.0003
     26  CE2       38.1570   15.9420   -3.4800 C.ar  147  PHE147     -0.0003
     27  CZ        39.1140   15.5230   -4.4510 C.ar  147  PHE147     -0.0000
     28  N         37.2320   13.1170    1.8830 N.am  148  ASP148     -0.1960
     29  CA        36.5460   12.8050    3.1520 C.3   148  ASP148      0.1840
     30  C         37.1640   13.6530    4.2790 C.2   148  ASP148      0.2621
     31  O         38.3260   14.1750    4.1470 O.2   148  ASP148     -0.2715
     32  CB        36.5600   11.3090    3.4890 C.3   148  ASP148      0.1450
     33  CG        35.3720   10.8890    4.3370 C.2   148  ASP148      0.3671
     34  OD1       34.5460   11.7520    4.7510 O.co2 148  ASP148     -0.2456
     35  OD2       35.0840    9.6930    4.5810 O.co2 148  ASP148     -0.2456
     36  N         36.4130   13.7210    5.3690 N.am  149  GLN149     -0.1977
     37  CA        36.9050   14.3270    6.6150 C.3   149  GLN149      0.1601
     38  C         38.1530   13.6710    7.1670 C.2   149  GLN149      0.2287
     39  O         38.4870   12.5180    6.8260 O.2   149  GLN149     -0.2864
     40  CB        35.8140   14.3260    7.7580 C.3   149  GLN149      0.0394
     41  CG        34.7900   15.5230    7.7140 C.3   149  GLN149      0.0908
     42  CD        33.7700   15.4240    6.5230 C.2   149  GLN149      0.2608
     43  OE1       33.5160   16.4040    5.8820 O.2   149  GLN149     -0.2717
     44  NE2       33.2030   14.2650    6.2900 N.am  149  GLN149     -0.0878
     45  N         25.0320    5.9650    5.7940 N.3   158  ARG158     -0.1245
     46  CA        24.7070    6.9900    4.8310 C.3   158  ARG158      0.1563
     47  C         23.5130    6.5240    3.9910 C.2   158  ARG158      0.2260
     48  O         23.4290    5.3620    3.6090 O.2   158  ARG158     -0.2867
     49  CB        25.9260    7.2700    3.9430 C.3   158  ARG158      0.0307
     50  CG        25.8110    8.4750    3.0500 C.3   158  ARG158      0.0489
     51  CD        26.8760    8.3870    1.9780 C.3   158  ARG158      0.2205
     52  NE        27.0220    9.5580    1.1230 N.pl3 158  ARG158     -0.0865
     53  CZ        27.7790    9.5590    0.0340 C.cat 158  ARG158      0.5346
     54  NH1       28.4510    8.4640   -0.3290 N.pl3 158  ARG158      0.1354
     55  NH2       27.8660   10.6600   -0.6920 N.pl3 158  ARG158      0.1354
     56  N         20.0500    8.3880    1.4260 N.3   160  ILE160     -0.1245
     57  CA        19.4140    9.6110    0.9330 C.3   160  ILE160      0.1561
     58  C         18.3800   10.1180    1.9730 C.2   160  ILE160      0.2260
     59  O         17.9560   11.2720    1.9500 O.2   160  ILE160     -0.2867
     60  CB        18.8890    9.3510   -0.5110 C.3   160  ILE160      0.0252
     61  CG1       20.0190    9.7130   -1.5030 C.3   160  ILE160      0.0019
     62  CG2       17.5930   10.1150   -0.7910 C.3   160  ILE160      0.0019
     63  CD1       19.6780    9.5990   -2.9870 C.3   160  ILE160      0.0001
     64  N         33.2270   20.1070   -2.4570 N.3   187  ASN187     -0.1225
     65  CA        32.7110   19.5850   -1.1850 C.3   187  ASN187      0.1785
     66  C         33.5100   18.3140   -0.8150 C.2   187  ASN187      0.2597
     67  O         33.0260   17.1530   -0.9220 O.2   187  ASN187     -0.2718
     68  CB        31.1970   19.2860   -1.3120 C.3   187  ASN187      0.1169
     69  CG        30.5300   19.0600    0.0310 C.2   187  ASN187      0.2627
     70  OD1       31.1970   18.9670    1.0550 O.2   187  ASN187     -0.2716
     71  ND2       29.2000   18.9130    0.0200 N.am  187  ASN187     -0.0877
     72  N         34.7520   18.5690   -0.3920 N.am  188  ALA188     -0.1966
     73  CA        35.8140   17.5530   -0.3790 C.3   188  ALA188      0.1728
     74  C         35.9750   16.7840    0.9340 C.2   188  ALA188      0.2616
     75  O         36.7870   15.8690    1.0150 O.2   188  ALA188     -0.2715
     76  CB        37.1610   18.2330   -0.7600 C.3   188  ALA188      0.0334
     77  N         35.2450   17.1950    1.9680 N.am  189  GLY189     -0.1955
     78  CA        35.4360   16.6010    3.2940 C.3   189  GLY189      0.1869
     79  C         36.3830   17.4420    4.1230 C.2   189  GLY189      0.2309
     80  O         37.4910   17.7790    3.6730 O.2   189  GLY189     -0.2863
     81  N         33.3380   15.4070   10.9260 N.3   193  ARG193     -0.1245
     82  CA        31.8760   15.3050   10.7490 C.3   193  ARG193      0.1563
     83  C         31.3050   14.4880   11.9100 C.2   193  ARG193      0.2260
     84  O         31.8790   13.4720   12.2920 O.2   193  ARG193     -0.2867
     85  CB        31.4830   14.6710    9.4020 C.3   193  ARG193      0.0307
     86  CG        29.9510   14.2900    9.3300 C.3   193  ARG193      0.0489
     87  CD        29.4870   13.8130    7.9480 C.3   193  ARG193      0.2205
     88  NE        30.1160   12.5400    7.5710 N.pl3 193  ARG193     -0.0865
     89  CZ        29.9530   11.3700    8.2090 C.cat 193  ARG193      0.5346
     90  NH1       29.1400   11.2850    9.2350 N.pl3 193  ARG193      0.1354
     91  NH2       30.6010   10.2700    7.7780 N.pl3 193  ARG193      0.1354
     92  N         24.8320   12.6440   10.4890 N.3   196  TYR196     -0.1227
     93  CA        24.4650   12.9590    9.1080 C.3   196  TYR196      0.1736
     94  C         23.2870   13.9460    8.9030 C.2   196  TYR196      0.2595
     95  O         23.2780   14.7240    7.9400 O.2   196  TYR196     -0.2718
     96  CB        24.1480   11.6780    8.3550 C.3   196  TYR196      0.0548
     97  CG        25.3340   11.0160    7.6200 C.ar  196  TYR196     -0.0200
     98  CD1       26.1570   11.7400    6.7350 C.ar  196  TYR196     -0.0009
     99  CD2       25.5830    9.6420    7.8190 C.ar  196  TYR196     -0.0009
    100  CE1       27.2290   11.1110    6.0560 C.ar  196  TYR196      0.0417
    101  CE2       26.6350    9.0110    7.1490 C.ar  196  TYR196      0.0417
    102  CZ        27.4300    9.7460    6.2650 C.ar  196  TYR196      0.1957
    103  OH        28.4560    9.1270    5.5840 O.3   196  TYR196     -0.2866
    104  N         22.2630   13.8270    9.7410 N.am  197  TYR197     -0.1976
    105  CA        21.0150   14.5750    9.5410 C.3   197  TYR197      0.1639
    106  C         20.3620   15.0060   10.8430 C.2   197  TYR197      0.2290
    107  O         20.7590   14.5790   11.9550 O.2   197  TYR197     -0.2864
    108  CB        19.9940   13.6970    8.7950 C.3   197  TYR197      0.0560
    109  CG        20.3440   13.4140    7.3510 C.ar  197  TYR197     -0.0198
    110  CD1       20.2860   14.4180    6.3570 C.ar  197  TYR197     -0.0009
    111  CD2       20.6490   12.1150    6.9710 C.ar  197  TYR197     -0.0009
    112  CE1       20.5950   14.1060    4.9930 C.ar  197  TYR197      0.0417
    113  CE2       20.9630   11.7980    5.6670 C.ar  197  TYR197      0.0417
    114  CZ        20.9170   12.7630    4.6880 C.ar  197  TYR197      0.1957
    115  OH        21.2240   12.3440    3.3980 O.3   197  TYR197     -0.2866
    116  N         38.2120   22.0600    3.1350 N.3   217  GLU217     -0.1245
    117  CA        37.0250   22.4730    2.3610 C.3   217  GLU217      0.1567
    118  C         36.2970   23.5690    3.1540 C.2   217  GLU217      0.2260
    119  O         36.8620   24.1190    4.1070 O.2   217  GLU217     -0.2867
    120  CB        36.1150   21.2490    2.1200 C.3   217  GLU217      0.0388
    121  CG        35.5260   20.6910    3.4220 C.3   217  GLU217      0.1160
    122  CD        34.0450   20.3690    3.2830 C.2   217  GLU217      0.3649
    123  OE1       33.6930   19.3130    2.7170 O.co2 217  GLU217     -0.2457
    124  OE2       33.1900   21.1560    3.7780 O.co2 217  GLU217     -0.2457
    125  N         33.9750   23.5740    5.3110 N.3   219  GLU219     -0.1245
    126  CA        33.5640   23.2910    6.6960 C.3   219  GLU219      0.1567
    127  C         34.7320   22.7600    7.4700 C.2   219  GLU219      0.2260
    128  O         35.2980   21.6730    7.1440 O.2   219  GLU219     -0.2867
    129  CB        32.3900   22.2700    6.7300 C.3   219  GLU219      0.0388
    130  CG        31.2650   22.7000    5.7260 C.3   219  GLU219      0.1160
    131  CD        30.0890   21.7570    5.8160 C.2   219  GLU219      0.3649
    132  OE1       30.0740   20.7380    5.0570 O.co2 219  GLU219     -0.2457
    133  OE2       29.2000   22.0400    6.6630 O.co2 219  GLU219     -0.2457
    134  N         31.7620   19.8310   10.2650 N.3   222  THR222     -0.1218
    135  CA        30.3820   19.8060    9.8630 C.3   222  THR222      0.1862
    136  C         29.5930   19.0160   10.9100 C.2   222  THR222      0.2287
    137  O         29.5880   17.7830   10.9330 O.2   222  THR222     -0.2866
    138  CB        30.1990   19.4030    8.3740 C.3   222  THR222      0.1770
    139  OG1       28.8260   19.5260    7.9900 O.3   222  THR222     -0.2211
    140  CG2       30.5630   17.9390    8.1010 C.3   222  THR222      0.0375
    141  N         26.5610   17.5790   12.3250 N.3   224  LYS224     -0.1245
    142  CA        25.3000   17.1010   11.7100 C.3   224  LYS224      0.1561
    143  C         24.5310   16.1960   12.6960 C.2   224  LYS224      0.2260
    144  O         23.9590   15.1460   12.2980 O.2   224  LYS224     -0.2867
    145  CB        25.5560   16.3570   10.4030 C.3   224  LYS224      0.0271
    146  CG        26.1400   17.2570    9.3010 C.3   224  LYS224      0.0035
    147  CD        26.4790   16.3670    8.0720 C.3   224  LYS224      0.0206
    148  CE        26.6160   17.2670    6.8640 C.3   224  LYS224      0.1093
    149  NZ        26.5970   16.4070    5.6050 N.3   224  LYS224     -0.1314
    150  N         25.5670   22.3210   11.0670 N.3   245  ARG245     -0.1231
    151  CA        25.0480   22.1060    9.6960 C.3   245  ARG245      0.1694
    152  C         23.6820   21.4270    9.7320 C.2   245  ARG245      0.2592
    153  O         22.7560   21.8220    9.0140 O.2   245  ARG245     -0.2718
    154  CB        26.0200   21.2210    8.8970 C.3   245  ARG245      0.0321
    155  CG        25.5470   20.9300    7.4700 C.3   245  ARG245      0.0489
    156  CD        25.3720   22.1810    6.6130 C.3   245  ARG245      0.2205
    157  NE        24.6900   21.7650    5.3580 N.pl3 245  ARG245     -0.0865
    158  CZ        23.3740   21.7180    5.2090 C.cat 245  ARG245      0.5346
    159  NH1       22.5420   22.0490    6.2080 N.pl3 245  ARG245      0.1354
    160  NH2       22.8730   21.3090    4.0350 N.pl3 245  ARG245      0.1354
    161  N         23.5450   20.3730   10.5380 N.am  246  HIS246     -0.1976
    162  CA        22.2020   19.7660   10.7640 C.3   246  HIS246      0.1656
    163  C         22.0450   19.4730   12.2350 C.2   246  HIS246      0.2291
    164  O         23.0290   19.2000   12.9250 O.2   246  HIS246     -0.2864
    165  CB        22.0630   18.3910   10.0580 C.3   246  HIS246      0.0771
    166  CG        22.0560   18.4700    8.5550 C.ar  246  HIS246      0.0820
    167  ND1       21.0530   19.1060    7.8570 N.ar  246  HIS246     -0.2267
    168  CD2       22.8730   17.9120    7.6280 C.ar  246  HIS246      0.1154
    169  CE1       21.3050   19.0160    6.5500 C.ar  246  HIS246      0.1986
    170  NE2       22.3700   18.2460    6.3790 N.ar  246  HIS246     -0.2212
    171  N         16.5290   20.7490    4.8630 N.3   307  GLU307     -0.1245
    172  CA        17.8860   20.3700    4.5120 C.3   307  GLU307      0.1567
    173  C         18.8290   21.5590    4.6560 C.2   307  GLU307      0.2260
    174  O         20.0160   21.3830    4.8870 O.2   307  GLU307     -0.2867
    175  CB        17.8650   19.8380    3.0680 C.3   307  GLU307      0.0388
    176  CG        19.1970   19.7680    2.3240 C.3   307  GLU307      0.1160
    177  CD        20.1440   18.6890    2.8590 C.2   307  GLU307      0.3649
    178  OE1       19.7060   17.7750    3.6040 O.co2 307  GLU307     -0.2457
    179  OE2       21.3480   18.7820    2.5300 O.co2 307  GLU307     -0.2457
@<TRIPOS>BOND
     1    27    25   ar
     2    27    26   ar
     3    25    23   ar
     4    26    24   ar
     5    23    22   ar
     6    63    61    1
     7    64    65    1
     8    24    22   ar
     9    22    21    1
    10    61    60    1
    11    68    65    1
    12    68    69    1
    13    65    66    1
    14    21    18    1
    15    67    66    2
    16    66    72   am
    17    62    60    1
    18    76    73    1
    19    55    53    1
    20    60    57    1
    21    72    73    1
    22    73    74    1
    23    54    53    1
    24    17    18    1
    25    71    69   am
    26    69    70    2
    27    53    52    2
    28    18    19    1
    29     6     5    1
    30     1     2    1
    31     5     2    1
    32    57    56    1
    33    57    58    1
    34    74    75    2
    35    74    77   am
    36    52    51    1
    37     4     3    2
    38     2     3    1
    39    19    28   am
    40    19    20    2
    41    14    16   ar
    42    14    12   ar
    43    16    15   ar
    44    28    29    1
    45     3     7   am
    46    59    58    2
    47    77    78    1
    48    51    50    1
    49   120   117    1
    50   120   121    1
    51   176   177    1
    52   176   175    1
    53   117   116    1
    54   117   118    1
    55   179   177   ar
    56    12    11    1
    57    12    13   ar
    58   123   122   ar
    59   177   178   ar
    60    15    13   ar
    61    50    49    1
    62   175   172    1
    63    11     8    1
    64    29    32    1
    65    29    30    1
    66   118   119    2
    67     7     8    1
    68   122   121    1
    69   122   124   ar
    70    78    79    1
    71   115   114    1
    72    32    33    1
    73    48    47    2
    74    80    79    2
    75     8     9    1
    76    49    46    1
    77    47    46    1
    78   160   158    1
    79    31    30    2
    80     9    10    2
    81    30    36   am
    82    33    35   ar
    83    33    34   ar
    84   172   173    1
    85   172   171    1
    86   173   174    2
    87   114   112   ar
    88   114   113   ar
    89    46    45    1
    90   112   110   ar
    91   132   131   ar
    92   158   157    2
    93   158   159    1
    94   125   126    1
    95   157   156    1
    96    36    37    1
    97   103   102    1
    98   149   148    1
    99   113   111   ar
   100   130   131    1
   101   130   129    1
   102   131   133   ar
   103    43    42    2
   104   100   102   ar
   105   100    98   ar
   106   102   101   ar
   107    44    42   am
   108   110   109   ar
   109   170   169   ar
   110   170   168   ar
   111    42    41    1
   112   169   167   ar
   113   156   155    1
   114    37    38    1
   115    37    40    1
   116   126   129    1
   117   126   127    1
   118    98    97   ar
   119    39    38    2
   120   148   147    1
   121   111   109   ar
   122   128   127    2
   123   101    99   ar
   124   109   108    1
   125   155   154    1
   126    88    87    1
   127    88    89    2
   128    97    99   ar
   129    97    96    1
   130   168   166   ar
   131    41    40    1
   132    91    89    1
   133   167   166   ar
   134    95    94    2
   135    87    86    1
   136   139   138    1
   137   147   146    1
   138   140   138    1
   139    89    90    1
   140    96    93    1
   141   138   135    1
   142   166   165    1
   143   108   105    1
   144   154   151    1
   145    94    93    1
   146    94   104   am
   147   153   152    2
   148    93    92    1
   149   146   145    1
   150    86    85    1
   151    85    82    1
   152   105   104    1
   153   105   106    1
   154   151   152    1
   155   151   150    1
   156   152   161   am
   157   135   134    1
   158   135   136    1
   159   165   162    1
   160   145   142    1
   161   161   162    1
   162    82    81    1
   163    82    83    1
   164   162   163    1
   165   106   107    2
   166   136   137    2
   167   142   141    1
   168   142   143    1
   169    83    84    2
   170   163   164    2
   171   144   143    2
