@<TRIPOS>MOLECULE
tmp/1oflA00.pdb
 150 143 0 0 0
SMALL
GASTEIGER

@<TRIPOS>ATOM
      1  N         36.9790    7.9260   22.6350 N.3   135  ARG135     -0.1245
      2  CA        37.7600    9.1670   22.6900 C.3   135  ARG135      0.1563
      3  C         38.9040    9.1830   21.7010 C.2   135  ARG135      0.2260
      4  O         39.5830    8.1420   21.5240 O.2   135  ARG135     -0.2867
      5  CB        38.3110    9.3480   24.1110 C.3   135  ARG135      0.0307
      6  CG        39.1550   10.5840   24.3370 C.3   135  ARG135      0.0489
      7  CD        39.4670   10.7940   25.8250 C.3   135  ARG135      0.2205
      8  NE        40.2560   11.9970   26.0270 N.pl3 135  ARG135     -0.0865
      9  CZ        41.1740   12.1300   26.9950 C.cat 135  ARG135      0.5346
     10  NH1       41.3860   11.1380   27.8550 N.pl3 135  ARG135      0.1354
     11  NH2       41.8960   13.2420   27.0850 N.pl3 135  ARG135      0.1354
     12  N         44.8940   13.9760   21.7210 N.3   138  HIS138     -0.1241
     13  CA        46.3830   14.1300   21.6490 C.3   138  HIS138      0.1621
     14  C         46.8870   13.4940   20.3870 C.2   138  HIS138      0.2264
     15  O         47.9880   13.0200   20.3130 O.2   138  HIS138     -0.2867
     16  CB        47.0700   13.6010   22.9170 C.3   138  HIS138      0.0745
     17  CG        46.6870   14.3670   24.1510 C.ar  138  HIS138      0.0817
     18  ND1       45.6160   14.0120   24.9370 N.ar  138  HIS138     -0.2268
     19  CD2       47.1890   15.5120   24.6790 C.ar  138  HIS138      0.1154
     20  CE1       45.4910   14.8920   25.9220 C.ar  138  HIS138      0.1986
     21  NE2       46.4270   15.8080   25.7870 N.ar  138  HIS138     -0.2212
     22  N         34.3610   11.8470   22.7290 N.3   173  ARG173     -0.1245
     23  CA        35.1190   13.0840   22.9680 C.3   173  ARG173      0.1563
     24  C         36.2670   13.1580   21.9570 C.2   173  ARG173      0.2260
     25  O         36.9680   12.1590   21.6940 O.2   173  ARG173     -0.2867
     26  CB        35.6580   13.1350   24.3840 C.3   173  ARG173      0.0307
     27  CG        36.3070   14.4570   24.7120 C.3   173  ARG173      0.0489
     28  CD        36.9060   14.4670   26.1770 C.3   173  ARG173      0.2205
     29  NE        37.6100   15.7190   26.4680 N.pl3 173  ARG173     -0.0865
     30  CZ        38.5330   15.8740   27.4140 C.cat 173  ARG173      0.5346
     31  NH1       38.8840   14.8230   28.1650 N.pl3 173  ARG173      0.1354
     32  NH2       39.0760   17.0680   27.6400 N.pl3 173  ARG173      0.1354
     33  N         42.2800   17.8350   22.3290 N.3   176  HIS176     -0.1241
     34  CA        43.7360   17.9880   22.2870 C.3   176  HIS176      0.1621
     35  C         44.2600   17.4240   21.0020 C.2   176  HIS176      0.2264
     36  O         45.3480   16.8370   20.9960 O.2   176  HIS176     -0.2867
     37  CB        44.4320   17.3780   23.5300 C.3   176  HIS176      0.0745
     38  CG        44.0090   18.0580   24.7870 C.ar  176  HIS176      0.0817
     39  ND1       42.9040   17.6530   25.5240 N.ar  176  HIS176     -0.2268
     40  CD2       44.4460   19.2110   25.3500 C.ar  176  HIS176      0.1154
     41  CE1       42.7340   18.4880   26.5310 C.ar  176  HIS176      0.1986
     42  NE2       43.6480   19.4420   26.4520 N.ar  176  HIS176     -0.2212
     43  N         36.5370   19.4050   22.4900 N.3   207  ASP207     -0.1225
     44  CA        37.1310   20.5040   23.2760 C.3   207  ASP207      0.1805
     45  C         38.6690   20.5590   23.1680 C.2   207  ASP207      0.2598
     46  O         39.3420   19.5310   23.0260 O.2   207  ASP207     -0.2718
     47  CB        36.6990   20.4080   24.7730 C.3   207  ASP207      0.1424
     48  CG        37.2010   19.1920   25.4580 C.2   207  ASP207      0.3668
     49  OD1       37.0570   18.0400   24.9460 O.co2 207  ASP207     -0.2456
     50  OD2       37.7020   19.2730   26.6060 O.co2 207  ASP207     -0.2456
     51  N         39.2140   21.7650   23.2610 N.am  208  SER208     -0.1952
     52  CA        40.6760   21.9350   23.4100 C.3   208  SER208      0.1924
     53  C         41.4080   21.3520   22.2340 C.2   208  SER208      0.2314
     54  O         42.4860   20.8170   22.4130 O.2   208  SER208     -0.2863
     55  CB        41.1830   21.3430   24.7470 C.3   208  SER208      0.2116
     56  OG        40.4530   22.0080   25.7650 O.3   208  SER208     -0.2180
     57  N         33.7520   23.2560   22.9640 N.3   231  TYR231     -0.1227
     58  CA        34.2140   24.1100   24.0460 C.3   231  TYR231      0.1736
     59  C         35.7120   24.3090   24.0000 C.2   231  TYR231      0.2596
     60  O         36.4570   23.3390   23.9590 O.2   231  TYR231     -0.2718
     61  CB        33.8560   23.4730   25.3890 C.3   231  TYR231      0.0548
     62  CG        34.4540   24.1930   26.5770 C.ar  231  TYR231     -0.0200
     63  CD1       34.0930   25.5060   26.8790 C.ar  231  TYR231     -0.0009
     64  CD2       35.3630   23.5520   27.4030 C.ar  231  TYR231     -0.0009
     65  CE1       34.6380   26.2080   27.9710 C.ar  231  TYR231      0.0417
     66  CE2       35.9290   24.2640   28.5140 C.ar  231  TYR231      0.0417
     67  CZ        35.5460   25.5580   28.7900 C.ar  231  TYR231      0.1957
     68  OH        36.0880   26.2140   29.8780 O.3   231  TYR231     -0.2866
     69  N         36.1520   25.5660   23.9700 N.am  232  GLY232     -0.1957
     70  CA        37.5590   25.8570   24.1150 C.3   232  GLY232      0.1869
     71  C         38.4590   25.3420   23.0000 C.2   232  GLY232      0.2309
     72  O         39.6080   24.9850   23.2550 O.2   232  GLY232     -0.2863
     73  N         40.5200   26.1690   19.4310 N.3   234  THR234     -0.1218
     74  CA        41.1840   27.2700   18.6870 C.3   234  THR234      0.1862
     75  C         41.2170   27.0280   17.2060 C.2   234  THR234      0.2287
     76  O         41.5710   25.9270   16.7850 O.2   234  THR234     -0.2866
     77  CB        42.5840   27.4910   19.2420 C.3   234  THR234      0.1770
     78  OG1       42.4500   28.0500   20.5360 O.3   234  THR234     -0.2211
     79  CG2       43.3330   28.5530   18.4470 C.3   234  THR234      0.0375
     80  N         33.1780   29.5540   24.2980 N.3   254  ASN254     -0.1240
     81  CA        34.5710   29.8870   24.5320 C.3   254  ASN254      0.1653
     82  C         35.5750   29.2630   23.5280 C.2   254  ASN254      0.2266
     83  O         36.6780   28.8210   23.8900 O.2   254  ASN254     -0.2867
     84  CB        34.9180   29.5190   25.9810 C.3   254  ASN254      0.1155
     85  CG        35.8890   30.4920   26.6160 C.2   254  ASN254      0.2627
     86  OD1       35.5100   31.1890   27.5840 O.2   254  ASN254     -0.2716
     87  ND2       37.1020   30.5940   26.0710 N.am  254  ASN254     -0.0877
     88  N         37.9520   30.1680   20.1460 N.3   256  PHE256     -0.1241
     89  CA        38.6960   31.2830   19.5310 C.3   256  PHE256      0.1605
     90  C         38.8040   31.1200   18.0380 C.2   256  PHE256      0.2264
     91  O         39.2920   30.0690   17.5550 O.2   256  PHE256     -0.2867
     92  CB        40.1110   31.2990   20.1130 C.3   256  PHE256      0.0534
     93  CG        40.1250   31.7030   21.5840 C.ar  256  PHE256     -0.0203
     94  CD1       39.9850   30.7420   22.5900 C.ar  256  PHE256     -0.0042
     95  CD2       40.2050   33.0680   21.9330 C.ar  256  PHE256     -0.0042
     96  CE1       39.9390   31.1130   23.9680 C.ar  256  PHE256     -0.0003
     97  CE2       40.1830   33.4530   23.3090 C.ar  256  PHE256     -0.0003
     98  CZ        40.0600   32.4660   24.3310 C.ar  256  PHE256     -0.0000
     99  N         29.8370   19.4480   31.7190 N.3   424  LEU424     -0.1245
    100  CA        30.1010   20.8810   31.7710 C.3   424  LEU424      0.1561
    101  C         28.8950   21.6250   32.2320 C.2   424  LEU424      0.2260
    102  O         27.7650   21.3380   31.8320 O.2   424  LEU424     -0.2867
    103  CB        30.4390   21.3900   30.3650 C.3   424  LEU424      0.0270
    104  CG        31.7740   20.8220   29.8570 C.3   424  LEU424      0.0019
    105  CD1       31.9010   21.1640   28.3830 C.3   424  LEU424      0.0001
    106  CD2       33.0300   21.3240   30.6280 C.3   424  LEU424      0.0001
    107  N         37.1540   33.0980   28.8000 N.3   435  THR435     -0.1203
    108  CA        38.3360   32.8310   29.6120 C.3   435  THR435      0.1994
    109  C         39.4820   32.3520   28.7140 C.2   435  THR435      0.2618
    110  O         39.2710   31.8360   27.5890 O.2   435  THR435     -0.2717
    111  CB        38.0180   31.7980   30.6850 C.3   435  THR435      0.1784
    112  OG1       37.8590   30.4820   30.0940 O.3   435  THR435     -0.2211
    113  CG2       36.6980   32.1590   31.4190 C.3   435  THR435      0.0376
    114  N         40.7030   32.5220   29.2040 N.am  436  GLY436     -0.1942
    115  CA        41.8410   31.8930   28.5530 C.3   436  GLY436      0.2014
    116  C         42.2210   32.5850   27.2550 C.2   436  GLY436      0.2639
    117  O         41.9340   33.7750   27.0340 O.2   436  GLY436     -0.2714
    118  N         42.9110   31.8610   26.3800 N.am  437  LYS437     -0.1963
    119  CA        43.4290   32.4580   25.1620 C.3   437  LYS437      0.1713
    120  C         43.6080   31.3170   24.1320 C.2   437  LYS437      0.2458
    121  O         43.4370   30.1330   24.4600 O.2   437  LYS437     -0.2730
    122  CB        44.7980   33.1150   25.4820 C.3   437  LYS437      0.0311
    123  CG        45.8320   32.1470   26.0000 C.3   437  LYS437      0.0038
    124  CD        47.1270   32.9560   26.2280 C.3   437  LYS437      0.0206
    125  CE        48.3360   32.2180   25.7930 C.3   437  LYS437      0.1093
    126  NZ        49.4820   33.2080   25.6830 N.3   437  LYS437     -0.1314
    127  N         43.9500   31.6520   22.8970 N.am  438  PRO438     -0.2716
    128  CA        44.2090   30.5990   21.8930 C.3   438  PRO438      0.1536
    129  C         45.2250   29.5500   22.3360 C.2   438  PRO438      0.2598
    130  O         46.2540   29.8360   22.9650 O.2   438  PRO438     -0.2715
    131  CB        44.7100   31.3950   20.6820 C.3   438  PRO438      0.0310
    132  CG        44.0020   32.7220   20.8780 C.3   438  PRO438      0.0237
    133  CD        44.2100   32.9880   22.3380 C.3   438  PRO438      0.0939
    134  N         44.9280   28.3050   22.0140 N.am  439  LEU439     -0.1978
    135  CA        45.8480   27.2070   22.2900 C.3   439  LEU439      0.1596
    136  C         47.0140   27.1360   21.3330 C.2   439  LEU439      0.2287
    137  O         46.8550   27.3970   20.1710 O.2   439  LEU439     -0.2864
    138  CB        45.1140   25.8760   22.1900 C.3   439  LEU439      0.0297
    139  CG        44.0460   25.5900   23.2770 C.3   439  LEU439      0.0022
    140  CD1       43.1560   24.4270   22.7950 C.3   439  LEU439      0.0001
    141  CD2       44.6230   25.2620   24.6540 C.3   439  LEU439      0.0001
    142  N         50.3630   22.8300   23.8060 N.3   443  GLU443     -0.1245
    143  CA        49.2750   22.5170   24.7090 C.3   443  GLU443      0.1567
    144  C         48.4300   21.3370   24.2500 C.2   443  GLU443      0.2260
    145  O         47.6620   20.7920   25.0410 O.2   443  GLU443     -0.2867
    146  CB        48.3910   23.7310   24.9330 C.3   443  GLU443      0.0388
    147  CG        49.0580   24.7800   25.7920 C.3   443  GLU443      0.1160
    148  CD        48.2420   26.0350   25.8800 C.2   443  GLU443      0.3649
    149  OE1       48.2550   26.7980   24.8970 O.co2 443  GLU443     -0.2457
    150  OE2       47.6100   26.2460   26.9310 O.co2 443  GLU443     -0.2457
@<TRIPOS>BOND
     1    76    75    2
     2    75    74    1
     3    91    90    2
     4    90    89    1
     5    79    77    1
     6    74    77    1
     7    74    73    1
     8    77    78    1
     9    89    92    1
    10    89    88    1
    11    92    93    1
    12   137   136    2
    13    15    14    2
    14    14    13    1
    15   131   132    1
    16   131   128    1
    17   132   133    1
    18    36    35    2
    19    35    34    1
    20   136   135    1
    21     4     3    2
    22    93    95   ar
    23    93    94   ar
    24    13    12    1
    25    13    16    1
    26    25    24    2
    27     3     2    1
    28   128   129    1
    29   128   127    1
    30    95    97   ar
    31    24    23    1
    32   134   135    1
    33   134   129   am
    34   138   135    1
    35   138   139    1
    36    53    54    2
    37    53    52    1
    38    34    33    1
    39    34    37    1
    40   129   130    2
    41   133   127    1
    42    43    44    1
    43    94    96   ar
    44     1     2    1
    45     2     5    1
    46    22    23    1
    47   140   139    1
    48   127   120   am
    49    16    17    1
    50    57    58    1
    51    23    26    1
    52    71    72    2
    53    71    70    1
    54    46    45    2
    55    45    51   am
    56    45    44    1
    57    51    52    1
    58    44    47    1
    59   139   141    1
    60    97    98   ar
    61    52    55    1
    62    82    83    2
    63    82    81    1
    64    37    38    1
    65   142   143    1
    66    60    59    2
    67    96    98   ar
    68    69    59   am
    69    69    70    1
    70    59    58    1
    71    58    61    1
    72     5     6    1
    73   120   121    2
    74   120   119    1
    75    17    19   ar
    76    17    18   ar
    77   144   143    1
    78   144   145    2
    79    80    81    1
    80     6     7    1
    81    26    27    1
    82    81    84    1
    83    19    21   ar
    84   143   146    1
    85    27    28    1
    86    55    56    1
    87    47    48    1
    88    38    40   ar
    89    38    39   ar
    90   149   148   ar
    91   146   147    1
    92    18    20   ar
    93    49    48   ar
    94   119   122    1
    95   119   118    1
    96    40    42   ar
    97    61    62    1
    98    48    50   ar
    99   122   123    1
   100    39    41   ar
   101   126   125    1
   102    21    20   ar
   103   147   148    1
   104   125   124    1
   105     7     8    1
   106   148   150   ar
   107    84    85    1
   108   123   124    1
   109     8     9    2
   110    87    85   am
   111    28    29    1
   112   118   116   am
   113    42    41   ar
   114    29    30    2
   115    62    63   ar
   116    62    64   ar
   117    85    86    2
   118    63    65   ar
   119     9    11    1
   120     9    10    1
   121   117   116    2
   122   116   115    1
   123    64    66   ar
   124    30    32    1
   125    30    31    1
   126   110   109    2
   127    65    67   ar
   128   105   104    1
   129    66    67   ar
   130   115   114    1
   131   109   114   am
   132   109   108    1
   133    67    68    1
   134   107   108    1
   135   108   111    1
   136   104   103    1
   137   104   106    1
   138   112   111    1
   139   103   100    1
   140   111   113    1
   141    99   100    1
   142   100   101    1
   143   102   101    2
