@<TRIPOS>MOLECULE
tmp/1ofmA01.pdb
 167 160 0 0 0
SMALL
GASTEIGER

@<TRIPOS>ATOM
      1  N         35.7050   21.6430   -4.0560 N.3   186  GLY186     -0.1210
      2  CA        34.3260   21.2730   -3.7660 C.3   186  GLY186      0.1956
      3  C         33.9690   20.7190   -2.4050 C.2   186  GLY186      0.2611
      4  O         34.5710   21.0730   -1.4030 O.2   186  GLY186     -0.2717
      5  N         32.9620   19.8540   -2.3730 N.am  187  ASN187     -0.1974
      6  CA        32.5040   19.2490   -1.1180 C.3   187  ASN187      0.1688
      7  C         33.4200   18.0540   -0.8600 C.2   187  ASN187      0.2292
      8  O         33.0290   16.8910   -0.9760 O.2   187  ASN187     -0.2864
      9  CB        31.0460   18.8110   -1.2710 C.3   187  ASN187      0.1181
     10  CG        30.4420   18.3490    0.0300 C.2   187  ASN187      0.2629
     11  OD1       30.7400   17.2580    0.5110 O.2   187  ASN187     -0.2716
     12  ND2       29.5850   19.1810    0.6140 N.am  187  ASN187     -0.0877
     13  N         38.1710   21.9660    3.2270 N.3   217  GLU217     -0.1231
     14  CA        37.0260   22.3910    2.4160 C.3   217  GLU217      0.1699
     15  C         36.3010   23.4820    3.1770 C.2   217  GLU217      0.2592
     16  O         36.8070   23.9720    4.1860 O.2   217  GLU217     -0.2718
     17  CB        36.1050   21.1970    2.1260 C.3   217  GLU217      0.0402
     18  CG        35.4720   20.5750    3.3540 C.3   217  GLU217      0.1161
     19  CD        33.9780   20.3590    3.1660 C.2   217  GLU217      0.3649
     20  OE1       33.1980   21.2910    3.4720 O.co2 217  GLU217     -0.2457
     21  OE2       33.5850   19.2700    2.6880 O.co2 217  GLU217     -0.2457
     22  N         35.1290   23.8810    2.6950 N.am  218  ALA218     -0.1966
     23  CA        34.4020   24.9620    3.3470 C.3   218  ALA218      0.1728
     24  C         34.0990   24.7210    4.8210 C.2   218  ALA218      0.2616
     25  O         34.0410   25.6660    5.6060 O.2   218  ALA218     -0.2715
     26  CB        33.0980   25.2240    2.6020 C.3   218  ALA218      0.0334
     27  N         33.8980   23.4640    5.2030 N.am  219  GLU219     -0.1977
     28  CA        33.5430   23.1740    6.5870 C.3   219  GLU219      0.1602
     29  C         34.6930   22.6270    7.4040 C.2   219  GLU219      0.2287
     30  O         35.2210   21.5520    7.0950 O.2   219  GLU219     -0.2864
     31  CB        32.3630   22.1840    6.6260 C.3   219  GLU219      0.0415
     32  CG        31.1790   22.6100    5.7160 C.3   219  GLU219      0.1163
     33  CD        29.9530   21.7350    5.9130 C.2   219  GLU219      0.3649
     34  OE1       29.2000   22.0020    6.8720 O.co2 219  GLU219     -0.2457
     35  OE2       29.7510   20.7800    5.1190 O.co2 219  GLU219     -0.2457
     36  N         26.6150   17.5180   12.2380 N.3   224  LYS224     -0.1245
     37  CA        25.3500   17.0790   11.6590 C.3   224  LYS224      0.1561
     38  C         24.5180   16.2100   12.5840 C.2   224  LYS224      0.2260
     39  O         24.0060   15.1540   12.1780 O.2   224  LYS224     -0.2867
     40  CB        25.6420   16.3330   10.3500 C.3   224  LYS224      0.0271
     41  CG        26.2130   17.2200    9.2330 C.3   224  LYS224      0.0035
     42  CD        26.4810   16.4060    7.9670 C.3   224  LYS224      0.0206
     43  CE        26.6380   17.3330    6.7510 C.3   224  LYS224      0.1093
     44  NZ        26.6690   16.5550    5.4860 N.3   224  LYS224     -0.1314
     45  N         30.7380   24.6250   11.6110 N.3   243  ASN243     -0.1240
     46  CA        29.3070   24.6470   11.3420 C.3   243  ASN243      0.1653
     47  C         28.3370   23.8030   12.1590 C.2   243  ASN243      0.2266
     48  O         28.6070   22.6450   12.4390 O.2   243  ASN243     -0.2867
     49  CB        29.0650   24.2220    9.8810 C.3   243  ASN243      0.1155
     50  CG        29.7150   25.1300    8.8600 C.2   243  ASN243      0.2627
     51  OD1       30.1780   26.2130    9.1640 O.2   243  ASN243     -0.2716
     52  ND2       29.7180   24.6790    7.6090 N.am  243  ASN243     -0.0877
     53  N         25.6520   22.3400   11.0650 N.3   245  ARG245     -0.1231
     54  CA        25.0590   22.0760    9.7480 C.3   245  ARG245      0.1694
     55  C         23.6660   21.4510    9.7690 C.2   245  ARG245      0.2592
     56  O         22.7690   21.8820    9.0330 O.2   245  ARG245     -0.2718
     57  CB        26.0260   21.2120    8.9300 C.3   245  ARG245      0.0321
     58  CG        25.5370   20.8550    7.5170 C.3   245  ARG245      0.0489
     59  CD        25.4470   22.0650    6.5910 C.3   245  ARG245      0.2205
     60  NE        24.8120   21.6830    5.3150 N.pl3 245  ARG245     -0.0865
     61  CZ        23.4930   21.6720    5.1230 C.cat 245  ARG245      0.5346
     62  NH1       22.6750   22.0230    6.1020 N.pl3 245  ARG245      0.1354
     63  NH2       22.9880   21.3050    3.9500 N.pl3 245  ARG245      0.1354
     64  N         23.5060   20.4020   10.5680 N.am  246  HIS246     -0.1976
     65  CA        22.2050   19.7290   10.7490 C.3   246  HIS246      0.1656
     66  C         22.0440   19.4510   12.2310 C.2   246  HIS246      0.2291
     67  O         23.0250   19.1680   12.9250 O.2   246  HIS246     -0.2864
     68  CB        22.1440   18.3750   10.0250 C.3   246  HIS246      0.0771
     69  CG        22.0670   18.4840    8.5370 C.ar  246  HIS246      0.0820
     70  ND1       21.0610   19.1690    7.8870 N.ar  246  HIS246     -0.2267
     71  CD2       22.8610   17.9660    7.5690 C.ar  246  HIS246      0.1154
     72  CE1       21.2400   19.0670    6.5800 C.ar  246  HIS246      0.1986
     73  NE2       22.3220   18.3410    6.3600 N.ar  246  HIS246     -0.2212
     74  N         29.1890   29.0290   10.6290 N.3   270  PHE270     -0.1241
     75  CA        27.9850   29.1300    9.7720 C.3   270  PHE270      0.1605
     76  C         26.9770   28.2490   10.5100 C.2   270  PHE270      0.2264
     77  O         27.2400   27.0690   10.7790 O.2   270  PHE270     -0.2867
     78  CB        28.2310   28.5920    8.3580 C.3   270  PHE270      0.0534
     79  CG        27.3350   29.2070    7.3080 C.ar  270  PHE270     -0.0203
     80  CD1       25.9760   28.9280    7.2700 C.ar  270  PHE270     -0.0042
     81  CD2       27.8750   30.0620    6.3450 C.ar  270  PHE270     -0.0042
     82  CE1       25.1560   29.4980    6.2760 C.ar  270  PHE270     -0.0003
     83  CE2       27.0790   30.6320    5.3580 C.ar  270  PHE270     -0.0003
     84  CZ        25.7150   30.3520    5.3220 C.ar  270  PHE270     -0.0000
     85  N         23.0170   26.6980   10.9810 N.3   272  TRP272     -0.1241
     86  CA        21.7080   26.2970   10.4700 C.3   272  TRP272      0.1605
     87  C         20.9400   25.8230   11.6990 C.2   272  TRP272      0.2264
     88  O         21.5510   25.4050   12.6860 O.2   272  TRP272     -0.2867
     89  CB        21.8280   25.0930    9.5380 C.3   272  TRP272      0.0550
     90  CG        22.3940   25.3520    8.1740 C.ar  272  TRP272      0.0003
     91  CD1       21.6850   25.3740    6.9930 C.ar  272  TRP272      0.0946
     92  CD2       23.7830   25.4290    7.8080 C.ar  272  TRP272      0.0152
     93  NE1       22.5540   25.4440    5.9290 N.ar  272  TRP272     -0.2442
     94  CE2       23.8410   25.4780    6.3980 C.ar  272  TRP272      0.0810
     95  CE3       24.9890   25.4470    8.5360 C.ar  272  TRP272      0.0012
     96  CZ2       25.0580   25.5360    5.6950 C.ar  272  TRP272      0.0191
     97  CZ3       26.1990   25.5050    7.8300 C.ar  272  TRP272      0.0001
     98  CH2       26.2170   25.5490    6.4290 C.ar  272  TRP272      0.0015
     99  N         34.9430   35.5660    1.2400 N.3   290  LYS290     -0.1245
    100  CA        34.0740   36.1720    0.2430 C.3   290  LYS290      0.1561
    101  C         32.8980   35.3080   -0.1930 C.2   290  LYS290      0.2260
    102  O         31.7640   35.7760   -0.2070 O.2   290  LYS290     -0.2867
    103  CB        34.8770   36.5670   -1.0060 C.3   290  LYS290      0.0271
    104  CG        34.0270   37.2040   -2.1180 C.3   290  LYS290      0.0035
    105  CD        34.8520   37.3650   -3.3950 C.3   290  LYS290      0.0206
    106  CE        34.0330   37.9130   -4.5610 C.3   290  LYS290      0.1093
    107  NZ        34.9000   38.0280   -5.7880 N.3   290  LYS290     -0.1314
    108  N         31.1840   33.0900    1.2560 N.3   292  ARG292     -0.1245
    109  CA        30.1500   32.8940    2.2670 C.3   292  ARG292      0.1563
    110  C         29.4000   34.1850    2.5940 C.2   292  ARG292      0.2260
    111  O         28.2870   34.1390    3.1200 O.2   292  ARG292     -0.2867
    112  CB        30.7590   32.3640    3.5750 C.3   292  ARG292      0.0307
    113  CG        31.5380   31.0540    3.4980 C.3   292  ARG292      0.0489
    114  CD        30.6890   29.9520    2.9330 C.3   292  ARG292      0.2205
    115  NE        30.8730   29.8920    1.4870 N.pl3 292  ARG292     -0.0865
    116  CZ        30.2570   29.0100    0.7060 C.cat 292  ARG292      0.5346
    117  NH1       29.4170   28.1290    1.2440 N.pl3 292  ARG292      0.1354
    118  NH2       30.4930   28.9990   -0.6050 N.pl3 292  ARG292      0.1354
    119  N         16.5700   20.8010    4.8070 N.3   307  GLU307     -0.1231
    120  CA        17.9210   20.3630    4.4750 C.3   307  GLU307      0.1699
    121  C         18.8850   21.5460    4.6740 C.2   307  GLU307      0.2592
    122  O         20.0780   21.3600    4.8160 O.2   307  GLU307     -0.2718
    123  CB        17.9560   19.8850    3.0160 C.3   307  GLU307      0.0402
    124  CG        19.3520   19.5550    2.4710 C.3   307  GLU307      0.1161
    125  CD        19.9680   18.3010    3.1000 C.2   307  GLU307      0.3649
    126  OE1       19.2570   17.5760    3.8290 O.co2 307  GLU307     -0.2457
    127  OE2       21.1640   18.0360    2.8570 O.co2 307  GLU307     -0.2457
    128  N         18.3470   22.7590    4.6460 N.am  308  HIS308     -0.1976
    129  CA        19.1340   23.9780    4.8900 C.3   308  HIS308      0.1656
    130  C         18.2740   24.7330    5.8920 C.2   308  HIS308      0.2291
    131  O         17.6980   25.7940    5.6080 O.2   308  HIS308     -0.2864
    132  CB        19.3230   24.7780    3.5960 C.3   308  HIS308      0.0771
    133  CG        20.4910   24.3160    2.7810 C.ar  308  HIS308      0.0820
    134  ND1       21.7930   24.4770    3.1980 N.ar  308  HIS308     -0.2267
    135  CD2       20.5540   23.6830    1.5860 C.ar  308  HIS308      0.1154
    136  CE1       22.6110   23.9620    2.2960 C.ar  308  HIS308      0.1986
    137  NE2       21.8830   23.4730    1.3070 N.ar  308  HIS308     -0.2212
    138  N         23.9680   33.7930    1.5600 N.3   334  LEU334     -0.1245
    139  CA        23.5430   32.8670    0.5020 C.3   334  LEU334      0.1561
    140  C         22.0280   32.8460    0.3170 C.2   334  LEU334      0.2260
    141  O         21.4610   31.8170   -0.0600 O.2   334  LEU334     -0.2867
    142  CB        24.0410   31.4520    0.8410 C.3   334  LEU334      0.0270
    143  CG        25.5440   31.3460    1.1580 C.3   334  LEU334      0.0019
    144  CD1       25.9100   29.9120    1.4930 C.3   334  LEU334      0.0001
    145  CD2       26.3520   31.8240   -0.0400 C.3   334  LEU334      0.0001
    146  N         20.5960   31.4950   -3.1560 N.3   337  ARG337     -0.1231
    147  CA        20.5800   30.0320   -3.3430 C.3   337  ARG337      0.1694
    148  C         19.4990   29.3830   -2.4980 C.2   337  ARG337      0.2591
    149  O         18.9040   28.3850   -2.8950 O.2   337  ARG337     -0.2718
    150  CB        21.8490   29.3610   -2.8670 C.3   337  ARG337      0.0321
    151  CG        23.0900   30.0200   -3.1380 C.3   337  ARG337      0.0489
    152  CD        24.1220   29.1070   -2.5230 C.3   337  ARG337      0.2205
    153  NE        25.4160   29.4820   -3.0160 N.pl3 337  ARG337     -0.0865
    154  CZ        26.5260   28.8130   -2.7890 C.cat 337  ARG337      0.5346
    155  NH1       26.5100   27.7060   -2.0520 N.pl3 337  ARG337      0.1354
    156  NH2       27.6470   29.2500   -3.3330 N.pl3 337  ARG337      0.1354
    157  N         19.2960   29.9120   -1.2920 N.am  338  ARG338     -0.1980
    158  CA        18.2810   29.3590   -0.4050 C.3   338  ARG338      0.1597
    159  C         16.8710   29.5700   -0.9490 C.2   338  ARG338      0.2287
    160  O         15.9950   28.7240   -0.7570 O.2   338  ARG338     -0.2864
    161  CB        18.4150   29.9650    0.9850 C.3   338  ARG338      0.0334
    162  CG        19.7520   29.6240    1.6450 C.3   338  ARG338      0.0492
    163  CD        19.8930   28.1290    2.0100 C.3   338  ARG338      0.2205
    164  NE        21.1020   28.0020    2.8230 N.pl3 338  ARG338     -0.0865
    165  CZ        22.2710   27.5510    2.3910 C.cat 338  ARG338      0.5346
    166  NH1       22.4260   27.1370    1.1340 N.pl3 338  ARG338      0.1354
    167  NH2       23.3160   27.5890    3.2170 N.pl3 338  ARG338      0.1354
@<TRIPOS>BOND
     1   107   106    1
     2   106   105    1
     3     1     2    1
     4     2     3    1
     5   105   104    1
     6   147   146    1
     7   147   150    1
     8   147   148    1
     9   156   154    1
    10   151   150    1
    11   151   152    1
    12   153   154    2
    13   153   152    1
    14   149   148    2
    15   154   155    1
    16   148   157   am
    17     3     5   am
    18     3     4    2
    19     5     6    1
    20   104   103    1
    21   157   158    1
    22     9     6    1
    23     9    10    1
    24     6     7    1
    25   103   100    1
    26     8     7    2
    27   159   160    2
    28   159   158    1
    29   118   116    1
    30   158   161    1
    31   102   101    2
    32   101   100    1
    33   141   140    2
    34   145   143    1
    35    10    11    2
    36    10    12   am
    37   100    99    1
    38   140   139    1
    39   139   142    1
    40   139   138    1
    41   116   117    1
    42   116   115    2
    43   142   143    1
    44   161   162    1
    45   166   165    1
    46   143   144    1
    47   108   109    1
    48   137   135   ar
    49   137   136   ar
    50   115   114    1
    51   135   133   ar
    52   162   163    1
    53   163   164    1
    54    17    14    1
    55    17    18    1
    56   109   110    1
    57   109   112    1
    58   136   134   ar
    59   165   164    2
    60   165   167    1
    61    14    15    1
    62    14    13    1
    63   124   123    1
    64   124   125    1
    65   110   111    2
    66    26    23    1
    67    21    19   ar
    68    22    15   am
    69    22    23    1
    70   133   134   ar
    71   133   132    1
    72   127   125   ar
    73   114   113    1
    74   123   120    1
    75   125   126   ar
    76    19    18    1
    77    19    20   ar
    78    15    16    2
    79    23    24    1
    80   113   112    1
    81   132   129    1
    82    63    61    1
    83   120   121    1
    84   120   119    1
    85   128   121   am
    86   128   129    1
    87   121   122    2
    88    24    27   am
    89    24    25    2
    90   129   130    1
    91    35    33   ar
    92    61    60    2
    93    61    62    1
    94    27    28    1
    95    60    59    1
    96    84    83   ar
    97    84    82   ar
    98    83    81   ar
    99    44    43    1
   100   131   130    2
   101    96    94   ar
   102    96    98   ar
   103    32    33    1
   104    32    31    1
   105    33    34   ar
   106    93    94   ar
   107    93    91   ar
   108    82    80   ar
   109    81    79   ar
   110    73    72   ar
   111    73    71   ar
   112    94    92   ar
   113    98    97   ar
   114    72    70   ar
   115    28    31    1
   116    28    29    1
   117    59    58    1
   118    43    42    1
   119    91    90   ar
   120    30    29    2
   121    80    79   ar
   122    79    78    1
   123    58    57    1
   124    71    69   ar
   125    52    50   am
   126    92    90   ar
   127    92    95   ar
   128    97    95   ar
   129    70    69   ar
   130    42    41    1
   131    90    89    1
   132    78    75    1
   133    69    68    1
   134    50    51    2
   135    50    49    1
   136    57    54    1
   137    56    55    2
   138    41    40    1
   139    89    86    1
   140    54    55    1
   141    54    53    1
   142    55    64   am
   143    75    76    1
   144    75    74    1
   145    49    46    1
   146    68    65    1
   147    40    37    1
   148    86    85    1
   149    86    87    1
   150    76    77    2
   151    64    65    1
   152    65    66    1
   153    46    45    1
   154    46    47    1
   155    37    36    1
   156    37    38    1
   157    87    88    2
   158    47    48    2
   159    39    38    2
   160    66    67    2
