@<TRIPOS>MOLECULE
tmp/1ofrD00.pdb
 129 121 0 0 0
SMALL
GASTEIGER

@<TRIPOS>ATOM
      1  N         38.5080   -7.9570   86.4830 N.3    38  ARG38      -0.1245
      2  CA        37.3000   -8.7200   86.2230 C.3    38  ARG38       0.1563
      3  C         37.4590  -10.1710   86.6340 C.2    38  ARG38       0.2260
      4  O         36.5100  -10.8020   87.0890 O.2    38  ARG38      -0.2867
      5  CB        36.9280   -8.6560   84.7460 C.3    38  ARG38       0.0307
      6  CG        36.7960   -7.2570   84.2130 C.3    38  ARG38       0.0489
      7  CD        36.3080   -7.2810   82.7850 C.3    38  ARG38       0.2205
      8  NE        36.2890   -5.9440   82.2070 N.pl3  38  ARG38      -0.0865
      9  CZ        35.9830   -5.6820   80.9400 C.cat  38  ARG38       0.5346
     10  NH1       35.6680   -6.6630   80.1110 N.pl3  38  ARG38       0.1354
     11  NH2       36.0020   -4.4360   80.4990 N.pl3  38  ARG38       0.1354
     12  N         22.2750    3.7980   79.1440 N.3   143  THR143     -0.1218
     13  CA        22.5830    2.7000   78.2300 C.3   143  THR143      0.1862
     14  C         23.5280    3.1690   77.1060 C.2   143  THR143      0.2287
     15  O         23.6710    2.5040   76.0720 O.2   143  THR143     -0.2866
     16  CB        21.3030    2.1490   77.5890 C.3   143  THR143      0.1770
     17  OG1       20.8090    3.0840   76.6240 O.3   143  THR143     -0.2211
     18  CG2       20.2450    1.9390   78.6350 C.3   143  THR143      0.0375
     19  N         28.1710    3.6060   79.0490 N.3   146  PRO146     -0.2102
     20  CA        28.9840    2.3920   79.1240 C.3   146  PRO146      0.1504
     21  C         29.8150    2.1220   77.8760 C.2   146  PRO146      0.2575
     22  O         30.9420    1.6420   77.9770 O.2   146  PRO146     -0.2718
     23  CB        27.9430    1.3110   79.3800 C.3   146  PRO146      0.0282
     24  CG        26.9920    2.0060   80.2490 C.3   146  PRO146      0.0208
     25  CD        26.8150    3.3260   79.5520 C.3   146  PRO146      0.0893
     26  N         29.2540    2.4280   76.7080 N.am  147  GLN147     -0.1980
     27  CA        29.9350    2.2260   75.4340 C.3   147  GLN147      0.1601
     28  C         31.2300    3.0400   75.3450 C.2   147  GLN147      0.2287
     29  O         32.1810    2.6320   74.6910 O.2   147  GLN147     -0.2864
     30  CB        28.9990    2.5970   74.2810 C.3   147  GLN147      0.0394
     31  CG        27.9940    1.5210   73.9120 C.3   147  GLN147      0.0908
     32  CD        28.6200    0.4090   73.0790 C.2   147  GLN147      0.2608
     33  OE1       29.7210   -0.0660   73.3860 O.2   147  GLN147     -0.2717
     34  NE2       27.9200   -0.0200   72.0260 N.am  147  GLN147     -0.0878
     35  N         33.2020    1.1140   78.9260 N.3   150  ALA150     -0.1231
     36  CA        33.1800   -0.3170   79.2360 C.3   150  ALA150      0.1694
     37  C         34.5240   -1.0680   79.1450 C.2   150  ALA150      0.2592
     38  O         34.8560   -1.8640   80.0150 O.2   150  ALA150     -0.2718
     39  CB        32.1460   -1.0150   78.3520 C.3   150  ALA150      0.0304
     40  N         35.2910   -0.8190   78.0960 N.am  151  ASP151     -0.1974
     41  CA        36.5680   -1.4970   77.9020 C.3   151  ASP151      0.1709
     42  C         37.5970   -1.3510   79.0260 C.2   151  ASP151      0.2293
     43  O         38.5350   -2.1370   79.1000 O.2   151  ASP151     -0.2864
     44  CB        37.1940   -1.0400   76.5710 C.3   151  ASP151      0.1436
     45  CG        37.2130    0.4920   76.4090 C.2   151  ASP151      0.3671
     46  OD1       36.1260    1.1240   76.4210 O.co2 151  ASP151     -0.2456
     47  OD2       38.3190    1.0630   76.2590 O.co2 151  ASP151     -0.2456
     48  N         20.5570   -3.7810   80.4880 N.3   171  LEU171     -0.1245
     49  CA        21.8820   -3.2250   80.3080 C.3   171  LEU171      0.1561
     50  C         22.9370   -4.1060   80.9900 C.2   171  LEU171      0.2260
     51  O         24.0100   -4.3640   80.4430 O.2   171  LEU171     -0.2867
     52  CB        21.9540   -1.8110   80.8930 C.3   171  LEU171      0.0270
     53  CG        23.3860   -1.2510   80.8660 C.3   171  LEU171      0.0019
     54  CD1       23.7080   -0.7780   79.4650 C.3   171  LEU171      0.0001
     55  CD2       23.5480   -0.1140   81.8620 C.3   171  LEU171      0.0001
     56  N         24.2490   -7.4580   79.5640 N.3   174  GLY174     -0.1210
     57  CA        25.1260   -7.4160   78.4130 C.3   174  GLY174      0.1956
     58  C         26.4570   -6.7640   78.6850 C.2   174  GLY174      0.2612
     59  O         27.2500   -6.5780   77.7560 O.2   174  GLY174     -0.2717
     60  N         26.7110   -6.4050   79.9420 N.am  175  LEU175     -0.1965
     61  CA        27.9800   -5.7850   80.2770 C.3   175  LEU175      0.1728
     62  C         29.0660   -6.8500   80.3760 C.2   175  LEU175      0.2617
     63  O         28.7910   -7.9940   80.7030 O.2   175  LEU175     -0.2715
     64  CB        27.8610   -5.0020   81.5800 C.3   175  LEU175      0.0311
     65  CG        26.9720   -3.7590   81.5340 C.3   175  LEU175      0.0022
     66  CD1       27.0960   -2.9930   82.8190 C.3   175  LEU175      0.0001
     67  CD2       27.4090   -2.8590   80.3900 C.3   175  LEU175      0.0001
     68  N         30.3020   -6.4700   80.0890 N.am  176  SER176     -0.1936
     69  CA        31.4220   -7.4120   80.1080 C.3   176  SER176      0.2055
     70  C         32.0980   -7.6070   81.4640 C.2   176  SER176      0.2643
     71  O         33.2430   -8.0480   81.5280 O.2   176  SER176     -0.2714
     72  CB        32.4730   -6.9680   79.0820 C.3   176  SER176      0.2130
     73  OG        31.8800   -6.7670   77.8110 O.3   176  SER176     -0.2179
     74  N         31.4050   -7.2870   82.5460 N.am  177  PHE177     -0.1973
     75  CA        31.9920   -7.4410   83.8710 C.3   177  PHE177      0.1639
     76  C         30.9280   -7.7180   84.9260 C.2   177  PHE177      0.2290
     77  O         29.7340   -7.7870   84.6110 O.2   177  PHE177     -0.2864
     78  CB        32.7740   -6.1870   84.2210 C.3   177  PHE177      0.0560
     79  CG        32.0940   -4.9280   83.7960 C.ar  177  PHE177     -0.0200
     80  CD1       30.9500   -4.4780   84.4480 C.ar  177  PHE177     -0.0042
     81  CD2       32.5780   -4.1950   82.7260 C.ar  177  PHE177     -0.0042
     82  CE1       30.3000   -3.3130   84.0350 C.ar  177  PHE177     -0.0003
     83  CE2       31.9320   -3.0330   82.3120 C.ar  177  PHE177     -0.0003
     84  CZ        30.7930   -2.5940   82.9660 C.ar  177  PHE177     -0.0000
     85  N         17.1690   -5.2510   73.4350 N.3   205  PHE205     -0.1241
     86  CA        16.8100   -3.8610   73.6220 C.3   205  PHE205      0.1605
     87  C         17.4070   -2.9190   72.5610 C.2   205  PHE205      0.2264
     88  O         18.2550   -3.3160   71.7540 O.2   205  PHE205     -0.2867
     89  CB        17.2230   -3.4200   75.0110 C.3   205  PHE205      0.0534
     90  CG        18.7060   -3.3820   75.2210 C.ar  205  PHE205     -0.0203
     91  CD1       19.4210   -2.2000   75.0280 C.ar  205  PHE205     -0.0042
     92  CD2       19.3920   -4.5110   75.6630 C.ar  205  PHE205     -0.0042
     93  CE1       20.8140   -2.1400   75.2860 C.ar  205  PHE205     -0.0003
     94  CE2       20.7730   -4.4610   75.9200 C.ar  205  PHE205     -0.0003
     95  CZ        21.4820   -3.2720   75.7330 C.ar  205  PHE205     -0.0000
     96  N         19.7740    0.0170   71.6930 N.3   207  GLY207     -0.1210
     97  CA        20.8990    0.7620   72.2400 C.3   207  GLY207      0.1956
     98  C         21.6680    1.4480   71.1190 C.2   207  GLY207      0.2611
     99  O         21.1830    1.5230   69.9910 O.2   207  GLY207     -0.2717
    100  N         22.8580    1.9550   71.4020 N.am  208  VAL208     -0.1979
    101  CA        23.6280    2.5930   70.3490 C.3   208  VAL208      0.1595
    102  C         24.9450    1.8450   70.1310 C.2   208  VAL208      0.2287
    103  O         25.5490    1.3430   71.0680 O.2   208  VAL208     -0.2864
    104  CB        23.9040    4.0730   70.6760 C.3   208  VAL208      0.0276
    105  CG1       22.6910    4.6750   71.3790 C.3   208  VAL208      0.0022
    106  CG2       25.1610    4.2100   71.5100 C.3   208  VAL208      0.0022
    107  N         28.9960    1.3790   68.6150 N.3   210  LYS210     -0.1245
    108  CA        30.2400    2.1050   68.8340 C.3   210  LYS210      0.1561
    109  C         30.3030    3.2890   67.8860 C.2   210  LYS210      0.2260
    110  O         31.0960    4.2090   68.0710 O.2   210  LYS210     -0.2867
    111  CB        31.4350    1.1820   68.5800 C.3   210  LYS210      0.0271
    112  CG        31.7710    0.2650   69.7430 C.3   210  LYS210      0.0035
    113  CD        32.3140    1.0570   70.9360 C.3   210  LYS210      0.0206
    114  CE        32.6100    0.1460   72.1010 C.3   210  LYS210      0.1093
    115  NZ        33.4700   -0.9820   71.6530 N.3   210  LYS210     -0.1314
    116  N         20.0120   -4.1820   70.0420 N.3   217  THR217     -0.1218
    117  CA        21.0280   -4.9690   70.7510 C.3   217  THR217      0.1862
    118  C         20.4960   -6.2810   71.3510 C.2   217  THR217      0.2287
    119  O         19.3630   -6.3530   71.7980 O.2   217  THR217     -0.2866
    120  CB        21.6390   -4.1580   71.8900 C.3   217  THR217      0.1770
    121  OG1       22.0320   -2.8750   71.3970 O.3   217  THR217     -0.2211
    122  CG2       22.8650   -4.8590   72.4360 C.3   217  THR217      0.0375
    123  N         21.6330   -9.2920   74.1270 N.3   219  THR219     -0.1218
    124  CA        22.5980   -9.7080   75.1280 C.3   219  THR219      0.1862
    125  C         22.6080  -11.2020   75.4150 C.2   219  THR219      0.2287
    126  O         21.6310  -11.9090   75.1410 O.2   219  THR219     -0.2866
    127  CB        22.3690   -8.9480   76.4360 C.3   219  THR219      0.1770
    128  OG1       20.9940   -9.0600   76.8160 O.3   219  THR219     -0.2211
    129  CG2       22.7310   -7.4930   76.2620 C.3   219  THR219      0.0375
@<TRIPOS>BOND
     1   109   110    2
     2   109   108    1
     3   111   108    1
     4   111   112    1
     5   107   108    1
     6   112   113    1
     7    99    98    2
     8   116   117    1
     9   102   101    1
    10   102   103    2
    11   101   104    1
    12   101   100    1
    13   104   105    1
    14   104   106    1
    15   117   118    1
    16   117   120    1
    17   113   114    1
    18    98   100   am
    19    98    97    1
    20   118   119    2
    21   121   120    1
    22   115   114    1
    23    96    97    1
    24    88    87    2
    25   120   122    1
    26    34    32   am
    27    87    86    1
    28    32    33    2
    29    32    31    1
    30    85    86    1
    31    86    89    1
    32    31    30    1
    33   123   124    1
    34    30    27    1
    35    29    28    2
    36    89    90    1
    37    91    90   ar
    38    91    93   ar
    39   124   125    1
    40   124   127    1
    41   126   125    2
    42    90    92   ar
    43    93    95   ar
    44    28    27    1
    45    27    26    1
    46    92    94   ar
    47    95    94   ar
    48    15    14    2
    49    47    45   ar
    50   129   127    1
    51    45    46   ar
    52    45    44    1
    53   127   128    1
    54    44    41    1
    55    17    16    1
    56    26    21   am
    57    14    13    1
    58    16    13    1
    59    16    18    1
    60    59    58    2
    61    73    72    1
    62    21    22    2
    63    21    20    1
    64    41    40    1
    65    41    42    1
    66    40    37   am
    67    13    12    1
    68    39    36    1
    69    57    58    1
    70    57    56    1
    71    58    60   am
    72    35    36    1
    73    42    43    2
    74    19    20    1
    75    19    25    1
    76    72    69    1
    77    20    23    1
    78    37    36    1
    79    37    38    2
    80    23    24    1
    81    54    53    1
    82    25    24    1
    83    60    61    1
    84    68    69    1
    85    68    62   am
    86    69    70    1
    87    10     9    1
    88    61    62    1
    89    61    64    1
    90    49    48    1
    91    49    52    1
    92    49    50    1
    93    62    63    2
    94    67    65    1
    95    51    50    2
    96    11     9    1
    97    53    52    1
    98    53    55    1
    99     9     8    2
   100    70    71    2
   101    70    74   am
   102    65    64    1
   103    65    66    1
   104     8     7    1
   105    83    81   ar
   106    83    84   ar
   107    74    75    1
   108    81    79   ar
   109     7     6    1
   110    84    82   ar
   111    79    78    1
   112    79    80   ar
   113    75    78    1
   114    75    76    1
   115    82    80   ar
   116     6     5    1
   117    77    76    2
   118     5     2    1
   119     2     1    1
   120     2     3    1
   121     3     4    2
