@<TRIPOS>MOLECULE
tmp/1ofvA00.pdb
 162 161 0 0 0
SMALL
GASTEIGER

@<TRIPOS>ATOM
      1  N         13.0380   10.5940   35.7300 N.3     9  THR9       -0.1203
      2  CA        12.5060   11.8950   35.3050 C.3     9  THR9        0.1994
      3  C         11.0040   11.9820   35.6030 C.2     9  THR9        0.2618
      4  O         10.3360   10.9390   35.5180 O.2     9  THR9       -0.2717
      5  CB        12.7750   12.0980   33.7800 C.3     9  THR9        0.1784
      6  OG1       12.3920   13.4490   33.4230 O.3     9  THR9       -0.2211
      7  CG2       12.0820   11.0550   32.8830 C.3     9  THR9        0.0376
      8  N         10.5200   13.1560   35.9080 N.am   10  GLN10      -0.1965
      9  CA         9.0630   13.3520   36.1060 C.3    10  GLN10       0.1733
     10  C          8.5220   13.9990   34.8420 C.2    10  GLN10       0.2617
     11  O          7.5570   13.5310   34.2140 O.2    10  GLN10      -0.2715
     12  CB         8.7900   14.2670   37.2890 C.3    10  GLN10       0.0408
     13  CG         8.9750   13.6150   38.6420 C.3    10  GLN10       0.0908
     14  CD         8.0260   12.4600   38.8190 C.2    10  GLN10       0.2608
     15  OE1        6.8080   12.6680   38.8770 O.2    10  GLN10      -0.2717
     16  NE2        8.5780   11.2670   38.8940 N.am   10  GLN10      -0.0878
     17  N          9.1390   15.0970   34.4320 N.am   11  THR11      -0.1937
     18  CA         8.6610   15.8270   33.2530 C.3    11  THR11       0.2028
     19  C          9.4910   15.6730   32.0220 C.2    11  THR11       0.2643
     20  O          9.2320   16.3250   30.9820 O.2    11  THR11      -0.2714
     21  CB         8.2570   17.2960   33.6440 C.3    11  THR11       0.1808
     22  OG1        9.4730   17.9850   34.0320 O.3    11  THR11      -0.2208
     23  CG2        7.2630   17.3940   34.8110 C.3    11  THR11       0.0379
     24  N         10.5180   14.8200   32.0340 N.am   12  GLY12      -0.1939
     25  CA        11.3080   14.5890   30.8390 C.3    12  GLY12       0.2014
     26  C         12.5930   15.3720   30.6950 C.2    12  GLY12       0.2639
     27  O         13.4040   15.0380   29.7920 O.2    12  GLY12      -0.2714
     28  N         12.8380   16.3590   31.5080 N.am   13  VAL13      -0.1963
     29  CA        14.0770   17.1360   31.3420 C.3    13  VAL13       0.1727
     30  C         15.3130   16.2080   31.5480 C.2    13  VAL13       0.2616
     31  O         16.2050   16.2830   30.7200 O.2    13  VAL13      -0.2715
     32  CB        14.0970   18.3580   32.2650 C.3    13  VAL13       0.0290
     33  CG1       15.4340   19.0600   32.1770 C.3    13  VAL13       0.0023
     34  CG2       12.9570   19.2940   31.8480 C.3    13  VAL13       0.0023
     35  N         15.3260   15.5200   32.6480 N.am   14  THR14      -0.1951
     36  CA        16.4830   14.6550   32.9510 C.3    14  THR14       0.1897
     37  C         16.7230   13.6650   31.8340 C.2    14  THR14       0.2313
     38  O         17.8900   13.2790   31.5560 O.2    14  THR14      -0.2863
     39  CB        16.4420   14.0020   34.3360 C.3    14  THR14       0.1794
     40  OG1       16.2590   15.0770   35.3050 O.3    14  THR14      -0.2208
     41  CG2       17.7120   13.2210   34.7380 C.3    14  THR14       0.0378
     42  N         16.5530   14.4320   38.9030 N.3    55  PRO55      -0.2102
     43  CA        16.0910   15.8080   39.2260 C.3    55  PRO55       0.1504
     44  C         15.6280   15.8620   40.6530 C.2    55  PRO55       0.2576
     45  O         15.2940   14.8410   41.3250 O.2    55  PRO55      -0.2718
     46  CB        14.8840   15.9570   38.2800 C.3    55  PRO55       0.0282
     47  CG        14.3100   14.5640   38.1470 C.3    55  PRO55       0.0208
     48  CD        15.5360   13.6340   38.1900 C.3    55  PRO55       0.0893
     49  N         15.5510   17.0900   41.2030 N.am   56  THR56      -0.1939
     50  CA        15.0490   17.2450   42.5680 C.3    56  THR56       0.2028
     51  C         13.5740   17.7710   42.4700 C.2    56  THR56       0.2642
     52  O         13.3930   18.7040   41.6880 O.2    56  THR56      -0.2714
     53  CB        15.8730   18.2640   43.4290 C.3    56  THR56       0.1808
     54  OG1       17.2910   17.8390   43.3070 O.3    56  THR56      -0.2208
     55  CG2       15.4430   18.3770   44.8730 C.3    56  THR56       0.0379
     56  N         12.7640   17.1150   43.2680 N.am   57  TRP57      -0.1959
     57  CA        11.3260   17.4630   43.3070 C.3    57  TRP57       0.1771
     58  C         10.8790   17.7350   44.7090 C.2    57  TRP57       0.2620
     59  O         11.4710   17.4100   45.7460 O.2    57  TRP57      -0.2715
     60  CB        10.5200   16.2250   42.7380 C.3    57  TRP57       0.0590
     61  CG        10.4630   16.3480   41.2630 C.ar   57  TRP57       0.0006
     62  CD1       11.4320   15.9630   40.3530 C.ar   57  TRP57       0.0946
     63  CD2        9.5190   17.0930   40.4940 C.ar   57  TRP57       0.0152
     64  NE1       11.0870   16.3480   39.0810 N.ar   57  TRP57      -0.2442
     65  CE2        9.9190   17.0830   39.1730 C.ar   57  TRP57       0.0810
     66  CE3        8.3160   17.7340   40.8540 C.ar   57  TRP57       0.0012
     67  CZ2        9.2170   17.6800   38.1250 C.ar   57  TRP57       0.0191
     68  CZ3        7.6240   18.3170   39.8270 C.ar   57  TRP57       0.0001
     69  CH2        8.0100   18.3050   38.5040 C.ar   57  TRP57       0.0015
     70  N          9.6850   18.4120   44.7920 N.am   58  ASN58      -0.1958
     71  CA         8.9820   18.6360   46.0500 C.3    58  ASN58       0.1819
     72  C          9.8160   19.0670   47.2290 C.2    58  ASN58       0.2621
     73  O          9.7050   18.5780   48.3640 O.2    58  ASN58      -0.2715
     74  CB         8.2680   17.2960   46.4110 C.3    58  ASN58       0.1195
     75  CG         7.2880   16.8610   45.3480 C.2    58  ASN58       0.2630
     76  OD1        7.1480   17.4650   44.3020 O.2    58  ASN58      -0.2716
     77  ND2        6.5240   15.7980   45.6720 N.am   58  ASN58      -0.0877
     78  N         10.5610   20.1560   46.9590 N.am   59  VAL59      -0.1963
     79  CA        11.4120   20.7200   48.0050 C.3    59  VAL59       0.1727
     80  C         12.3870   19.7250   48.6130 C.2    59  VAL59       0.2616
     81  O         12.2780   19.3590   49.7910 O.2    59  VAL59      -0.2715
     82  CB        10.5310   21.4490   49.0460 C.3    59  VAL59       0.0290
     83  CG1       11.3880   22.2530   50.0320 C.3    59  VAL59       0.0023
     84  CG2        9.5260   22.3240   48.3010 C.3    59  VAL59       0.0023
     85  N         13.3890   19.3150   47.8220 N.am   60  GLY60      -0.1955
     86  CA        14.4720   18.4960   48.3500 C.3    60  GLY60       0.1869
     87  C         14.3200   16.9950   48.3790 C.2    60  GLY60       0.2309
     88  O         15.0690   16.3310   49.1220 O.2    60  GLY60      -0.2863
     89  N         18.7620   17.8010   37.3160 N.3    88  ALA88      -0.1231
     90  CA        18.0020   18.9730   36.8170 C.3    88  ALA88       0.1694
     91  C         17.4160   19.6070   38.0670 C.2    88  ALA88       0.2593
     92  O         17.0890   18.8810   39.0160 O.2    88  ALA88      -0.2718
     93  CB        17.0120   18.5990   35.7330 C.3    88  ALA88       0.0304
     94  N         17.3290   20.9420   38.1390 N.am   89  GLY89      -0.1942
     95  CA        16.8260   21.5900   39.3650 C.3    89  GLY89       0.2014
     96  C         16.4320   23.0430   38.9860 C.2    89  GLY89       0.2638
     97  O         16.5880   23.3750   37.8160 O.2    89  GLY89      -0.2714
     98  N         16.0060   23.7850   39.9890 N.am   90  ASP90      -0.1971
     99  CA        15.5780   25.2070   39.6470 C.3    90  ASP90       0.1709
    100  C         16.1190   25.9900   40.8230 C.2    90  ASP90       0.2293
    101  O         15.6230   25.8360   41.9600 O.2    90  ASP90      -0.2864
    102  CB        14.0470   25.1990   39.5780 C.3    90  ASP90       0.1436
    103  CG        13.4240   26.5890   39.8120 C.2    90  ASP90       0.3671
    104  OD1       14.0560   27.6310   39.9290 O.co2  90  ASP90      -0.2456
    105  OD2       12.1620   26.5660   39.8940 O.co2  90  ASP90      -0.2456
    106  N         13.8440   27.0830   44.0340 N.3    94  TYR94      -0.1241
    107  CA        14.1630   26.2240   45.1930 C.3    94  TYR94       0.1605
    108  C         15.5920   26.4370   45.6390 C.2    94  TYR94       0.2264
    109  O         16.4680   25.5400   45.7800 O.2    94  TYR94      -0.2867
    110  CB        13.9700   24.7360   44.7160 C.3    94  TYR94       0.0534
    111  CG        12.4900   24.5830   44.3510 C.ar   94  TYR94      -0.0201
    112  CD1       11.6040   24.3200   45.4050 C.ar   94  TYR94      -0.0009
    113  CD2       12.0060   24.8000   43.0920 C.ar   94  TYR94      -0.0009
    114  CE1       10.2170   24.2130   45.1560 C.ar   94  TYR94       0.0417
    115  CE2       10.6340   24.7240   42.8130 C.ar   94  TYR94       0.0417
    116  CZ         9.7770   24.4780   43.8780 C.ar   94  TYR94       0.1957
    117  OH         8.4260   24.4590   43.6170 O.3    94  TYR94      -0.2866
    118  N         17.2340   24.3060   48.2870 N.3    97  ASN97      -0.1225
    119  CA        17.2880   22.7960   48.0850 C.3    97  ASN97       0.1785
    120  C         17.7090   22.5500   46.6640 C.2    97  ASN97       0.2597
    121  O         17.2370   21.5720   46.0240 O.2    97  ASN97      -0.2718
    122  CB        15.8580   22.2490   48.3160 C.3    97  ASN97       0.1169
    123  CG        15.3630   22.4610   49.7170 C.2    97  ASN97       0.2627
    124  OD1       14.6520   23.4320   50.0450 O.2    97  ASN97      -0.2716
    125  ND2       15.6790   21.5840   50.6510 N.am   97  ASN97      -0.0877
    126  N         18.6180   23.3730   46.1100 N.am   98  PHE98      -0.1962
    127  CA        18.9750   23.2420   44.7070 C.3    98  PHE98       0.1771
    128  C         19.8050   21.9690   44.4460 C.2    98  PHE98       0.2619
    129  O         20.8510   21.8320   45.1050 O.2    98  PHE98      -0.2715
    130  CB        19.8020   24.4680   44.2860 C.3    98  PHE98       0.0574
    131  CG        20.1440   24.4540   42.8460 C.ar   98  PHE98      -0.0200
    132  CD1       19.2520   24.2500   41.8390 C.ar   98  PHE98      -0.0042
    133  CD2       21.4960   24.7180   42.4790 C.ar   98  PHE98      -0.0042
    134  CE1       19.5600   24.2710   40.4990 C.ar   98  PHE98      -0.0003
    135  CE2       21.8390   24.7390   41.1360 C.ar   98  PHE98      -0.0003
    136  CZ        20.9270   24.5050   40.1030 C.ar   98  PHE98      -0.0000
    137  N         19.2830   21.1060   43.6080 N.am   99  GLN99      -0.1977
    138  CA        19.9740   19.8200   43.2930 C.3    99  GLN99       0.1601
    139  C         20.1310   18.9170   44.4840 C.2    99  GLN99       0.2287
    140  O         21.0220   18.0150   44.4790 O.2    99  GLN99      -0.2864
    141  CB        21.3670   20.1120   42.6330 C.3    99  GLN99       0.0394
    142  CG        21.4480   20.9570   41.3970 C.3    99  GLN99       0.0908
    143  CD        20.8490   20.3580   40.1700 C.2    99  GLN99       0.2608
    144  OE1       20.5460   19.1370   40.1690 O.2    99  GLN99      -0.2717
    145  NE2       20.6720   21.0650   39.0620 N.am   99  GLN99      -0.0878
    146  N         17.2690   24.0150   33.5380 N.3   145  GLU145     -0.1231
    147  CA        16.5280   24.3290   32.3280 C.3   145  GLU145      0.1699
    148  C         15.4190   25.3450   32.5940 C.2   145  GLU145      0.2592
    149  O         14.9600   25.9300   31.5960 O.2   145  GLU145     -0.2718
    150  CB        15.8460   23.1010   31.7210 C.3   145  GLU145      0.0402
    151  CG        16.8470   22.1940   30.9820 C.3   145  GLU145      0.1161
    152  CD        17.3300   22.7990   29.7180 C.2   145  GLU145      0.3649
    153  OE1       16.4040   22.8580   28.8820 O.co2 145  GLU145     -0.2457
    154  OE2       18.4370   23.3080   29.4660 O.co2 145  GLU145     -0.2457
    155  N         15.0170   25.4900   33.8050 N.am  146  ASP146     -0.1974
    156  CA        13.9630   26.4500   34.2200 C.3   146  ASP146      0.1709
    157  C         14.5220   27.8750   34.1410 C.2   146  ASP146      0.2293
    158  O         13.8370   28.7500   33.5910 O.2   146  ASP146     -0.2864
    159  CB        13.4720   26.1590   35.6370 C.3   146  ASP146      0.1436
    160  CG        12.6880   24.8560   35.6710 C.2   146  ASP146      0.3671
    161  OD1       11.9370   24.5980   34.6890 O.co2 146  ASP146     -0.2456
    162  OD2       12.7750   24.0780   36.6230 O.co2 146  ASP146     -0.2456
@<TRIPOS>BOND
     1   153   152   ar
     2   154   152   ar
     3   152   151    1
     4    27    26    2
     5    26    25    1
     6    26    28   am
     7    31    30    2
     8    25    24    1
     9   151   150    1
    10    20    19    2
    11    29    28    1
    12    29    30    1
    13    29    32    1
    14    30    35   am
    15    38    37    2
    16   149   148    2
    17   150   147    1
    18    37    36    1
    19    34    32    1
    20    19    24   am
    21    19    18    1
    22    33    32    1
    23   147   148    1
    24   147   146    1
    25   148   155   am
    26    35    36    1
    27     7     5    1
    28    36    39    1
    29    18    21    1
    30    18    17    1
    31     6     5    1
    32   158   157    2
    33    21    22    1
    34    21    23    1
    35     5     2    1
    36   155   156    1
    37   157   156    1
    38    11    10    2
    39   156   159    1
    40    39    41    1
    41    39    40    1
    42    17    10   am
    43   161   160   ar
    44    10     9    1
    45     2     3    1
    46     2     1    1
    47     4     3    2
    48     3     8   am
    49   159   160    1
    50   160   162   ar
    51    93    90    1
    52     8     9    1
    53     9    12    1
    54    90    89    1
    55    90    91    1
    56    12    13    1
    57    97    96    2
    58    91    94   am
    59    91    92    2
    60    67    69   ar
    61    67    65   ar
    62    94    95    1
    63    47    48    1
    64    47    46    1
    65    48    42    1
    66    46    43    1
    67    69    68   ar
    68    13    14    1
    69    14    15    2
    70    14    16   am
    71    42    43    1
    72    96    95    1
    73    96    98   am
    74   145   143   am
    75    64    65   ar
    76    64    62   ar
    77    65    63   ar
    78    43    44    1
    79   102    99    1
    80   102   103    1
    81    99    98    1
    82    99   100    1
    83   103   105   ar
    84   103   104   ar
    85    68    66   ar
    86   136   134   ar
    87   136   135   ar
    88   144   143    2
    89   143   142    1
    90    62    61   ar
    91    63    66   ar
    92    63    61   ar
    93   134   132   ar
    94    44    49   am
    95    44    45    2
    96   100   101    2
    97   135   133   ar
    98    49    50    1
    99    61    60    1
   100   142   141    1
   101    52    51    2
   102   132   131   ar
   103    51    50    1
   104    51    56   am
   105   133   131   ar
   106    50    53    1
   107   141   138    1
   108    60    57    1
   109   115   113   ar
   110   115   116   ar
   111   131   130    1
   112   113   111   ar
   113    56    57    1
   114   138   137    1
   115   138   139    1
   116    54    53    1
   117    57    58    1
   118    53    55    1
   119   137   128   am
   120   117   116    1
   121   116   114   ar
   122   106   107    1
   123   130   127    1
   124    76    75    2
   125   111   110    1
   126   111   112   ar
   127   128   127    1
   128   128   129    2
   129   140   139    2
   130   127   126    1
   131    58    70   am
   132    58    59    2
   133   110   107    1
   134    70    71    1
   135   114   112   ar
   136   107   108    1
   137    75    77   am
   138    75    74    1
   139   108   109    2
   140   121   120    2
   141    71    74    1
   142    71    72    1
   143   126   120   am
   144   120   119    1
   145    78    72   am
   146    78    79    1
   147    72    73    2
   148    85    86    1
   149    85    80   am
   150    79    80    1
   151    79    82    1
   152   119   118    1
   153   119   122    1
   154    84    82    1
   155   122   123    1
   156    86    87    1
   157    87    88    2
   158    80    81    2
   159    82    83    1
   160   123   124    2
   161   123   125   am
