@<TRIPOS>MOLECULE
tmp/1ofyB08.pdb
 202 192 0 0 0
SMALL
GASTEIGER

@<TRIPOS>ATOM
      1  N         25.2360   -0.1080  -33.3400 N.3   114  CYS114     -0.1235
      2  CA        24.4870    0.0250  -32.0950 C.3   114  CYS114      0.1677
      3  C         23.2170    0.8290  -32.3370 C.2   114  CYS114      0.2270
      4  O         22.0990    0.4580  -31.9780 O.2   114  CYS114     -0.2867
      5  CB        25.3570    0.7000  -31.0450 C.3   114  CYS114      0.0956
      6  SG        26.5740   -0.3770  -30.2420 S.3   114  CYS114     -0.0801
      7  N         19.9480   -0.5880  -33.6000 N.3   117  ILE117     -0.1245
      8  CA        19.0750   -1.4630  -32.8170 C.3   117  ILE117      0.1561
      9  C         18.7030   -0.8570  -31.4740 C.2   117  ILE117      0.2260
     10  O         17.9020   -1.4360  -30.7180 O.2   117  ILE117     -0.2867
     11  CB        19.7590   -2.8330  -32.6250 C.3   117  ILE117      0.0252
     12  CG1       21.0900   -2.7810  -31.8790 C.3   117  ILE117      0.0019
     13  CG2       19.9470   -3.5150  -33.9770 C.3   117  ILE117      0.0019
     14  CD1       21.5040   -4.0610  -31.1880 C.3   117  ILE117      0.0001
     15  N         24.7750  -19.2260  -26.3680 N.3   183  ILE183     -0.1245
     16  CA        23.3350  -18.9990  -26.5550 C.3   183  ILE183      0.1561
     17  C         22.6240  -20.2610  -27.0110 C.2   183  ILE183      0.2260
     18  O         22.6290  -20.6300  -28.1860 O.2   183  ILE183     -0.2867
     19  CB        23.1200  -17.8410  -27.5450 C.3   183  ILE183      0.0252
     20  CG1       24.0070  -16.6320  -27.2170 C.3   183  ILE183      0.0019
     21  CG2       21.6510  -17.4860  -27.6160 C.3   183  ILE183      0.0019
     22  CD1       23.7610  -15.4150  -28.0870 C.3   183  ILE183      0.0001
     23  N         24.8780  -20.8250  -30.1430 N.3   193  SER193     -0.1202
     24  CA        25.7670  -19.7850  -30.6550 C.3   193  SER193      0.2020
     25  C         26.7320  -19.3840  -29.5360 C.2   193  SER193      0.2619
     26  O         26.3120  -18.9100  -28.4760 O.2   193  SER193     -0.2717
     27  CB        24.9730  -18.5990  -31.1810 C.3   193  SER193      0.2103
     28  OG        25.7670  -17.6350  -31.8300 O.3   193  SER193     -0.2182
     29  N         28.0130  -19.6150  -29.8010 N.am  194  ASN194     -0.1960
     30  CA        29.0980  -19.3060  -28.8700 C.3   194  ASN194      0.1819
     31  C         29.4820  -17.8480  -29.0870 C.2   194  ASN194      0.2621
     32  O         30.3480  -17.4900  -29.8780 O.2   194  ASN194     -0.2715
     33  CB        30.2730  -20.2600  -29.0650 C.3   194  ASN194      0.1195
     34  CG        31.2780  -20.2400  -27.9300 C.2   194  ASN194      0.2630
     35  OD1       30.9420  -19.9000  -26.7930 O.2   194  ASN194     -0.2716
     36  ND2       32.5280  -20.5990  -28.2300 N.am  194  ASN194     -0.0877
     37  N         28.7620  -16.9840  -28.3820 N.am  195  PHE195     -0.1960
     38  CA        28.8430  -15.5560  -28.6820 C.3   195  PHE195      0.1771
     39  C         30.0570  -14.9230  -28.0260 C.2   195  PHE195      0.2620
     40  O         30.2610  -15.0660  -26.8210 O.2   195  PHE195     -0.2715
     41  CB        27.5470  -14.8930  -28.2120 C.3   195  PHE195      0.0574
     42  CG        27.4580  -13.3930  -28.4200 C.ar  195  PHE195     -0.0200
     43  CD1       27.6800  -12.8410  -29.6670 C.ar  195  PHE195     -0.0042
     44  CD2       27.1460  -12.5730  -27.3450 C.ar  195  PHE195     -0.0042
     45  CE1       27.5910  -11.4720  -29.8490 C.ar  195  PHE195     -0.0003
     46  CE2       27.0520  -11.2030  -27.5180 C.ar  195  PHE195     -0.0003
     47  CZ        27.2690  -10.6590  -28.7730 C.ar  195  PHE195     -0.0000
     48  N         30.8620  -14.2150  -28.8110 N.am  196  THR196     -0.1951
     49  CA        32.0570  -13.5490  -28.2870 C.3   196  THR196      0.1897
     50  C         31.6810  -12.2140  -27.6420 C.2   196  THR196      0.2313
     51  O         31.9540  -11.1550  -28.2140 O.2   196  THR196     -0.2863
     52  CB        33.0780  -13.3450  -29.4130 C.3   196  THR196      0.1794
     53  OG1       32.4700  -12.6340  -30.4960 O.3   196  THR196     -0.2208
     54  CG2       33.4850  -14.6990  -29.9820 C.3   196  THR196      0.0378
     55  N         34.3390   -9.6810  -26.5530 N.3   199  ARG199     -0.1231
     56  CA        35.0550   -9.1720  -27.7200 C.3   199  ARG199      0.1694
     57  C         34.1690   -8.2310  -28.5100 C.2   199  ARG199      0.2592
     58  O         34.6040   -7.1920  -29.0100 O.2   199  ARG199     -0.2718
     59  CB        35.5460  -10.3540  -28.5550 C.3   199  ARG199      0.0321
     60  CG        35.9340  -10.0360  -29.9840 C.3   199  ARG199      0.0489
     61  CD        35.7680  -11.2600  -30.8800 C.3   199  ARG199      0.2205
     62  NE        36.8630  -12.2080  -30.7020 N.pl3 199  ARG199     -0.0865
     63  CZ        37.2040  -13.1900  -31.5260 C.cat 199  ARG199      0.5346
     64  NH1       36.5340  -13.4070  -32.6540 N.pl3 199  ARG199      0.1354
     65  NH2       38.2360  -13.9740  -31.2160 N.pl3 199  ARG199      0.1354
     66  N         32.8850   -8.5690  -28.6460 N.am  200  HIS200     -0.1976
     67  CA        31.9730   -7.6410  -29.3350 C.3   200  HIS200      0.1656
     68  C         31.9490   -6.2990  -28.6030 C.2   200  HIS200      0.2291
     69  O         32.1400   -5.2410  -29.1940 O.2   200  HIS200     -0.2864
     70  CB        30.5820   -8.2590  -29.4320 C.3   200  HIS200      0.0771
     71  CG        30.2210   -9.0710  -30.6350 C.ar  200  HIS200      0.0820
     72  ND1       30.6640  -10.3610  -30.8660 N.ar  200  HIS200     -0.2267
     73  CD2       29.4340   -8.7670  -31.6950 C.ar  200  HIS200      0.1154
     74  CE1       30.1560  -10.7880  -32.0180 C.ar  200  HIS200      0.1986
     75  NE2       29.3960   -9.8370  -32.5610 N.ar  200  HIS200     -0.2212
     76  N         35.2210   -4.3500  -28.7330 N.3   203  SER203     -0.1202
     77  CA        35.4290   -3.8310  -30.0870 C.3   203  SER203      0.2020
     78  C         34.5800   -2.5930  -30.3390 C.2   203  SER203      0.2618
     79  O         35.0140   -1.5800  -30.8940 O.2   203  SER203     -0.2717
     80  CB        35.1350   -4.9410  -31.1000 C.3   203  SER203      0.2103
     81  OG        34.9550   -4.4310  -32.4040 O.3   203  SER203     -0.2182
     82  N         33.3180   -2.6580  -29.9240 N.am  204  LEU204     -0.1979
     83  CA        32.4140   -1.5270  -30.1200 C.3   204  LEU204      0.1596
     84  C         32.8490   -0.3010  -29.3340 C.2   204  LEU204      0.2287
     85  O         32.7870    0.8270  -29.8280 O.2   204  LEU204     -0.2864
     86  CB        30.9920   -1.9600  -29.7330 C.3   204  LEU204      0.0297
     87  CG        30.4300   -3.0920  -30.6100 C.3   204  LEU204      0.0022
     88  CD1       29.3040   -3.8410  -29.9060 C.3   204  LEU204      0.0001
     89  CD2       29.9800   -2.5310  -31.9480 C.3   204  LEU204      0.0001
     90  N         36.1140    1.8840  -30.8780 N.3   207  ARG207     -0.1245
     91  CA        35.9120    2.8190  -31.9690 C.3   207  ARG207      0.1563
     92  C         35.3140    4.1360  -31.5030 C.2   207  ARG207      0.2260
     93  O         35.3190    5.1200  -32.2450 O.2   207  ARG207     -0.2867
     94  CB        34.9600    2.2450  -33.0220 C.3   207  ARG207      0.0307
     95  CG        35.2940    0.8610  -33.5490 C.3   207  ARG207      0.0489
     96  CD        34.0610    0.2540  -34.2150 C.3   207  ARG207      0.2205
     97  NE        34.4380   -0.6600  -35.2940 N.pl3 207  ARG207     -0.0865
     98  CZ        34.5080   -1.9730  -35.0860 C.cat 207  ARG207      0.5346
     99  NH1       34.2250   -2.4360  -33.8730 N.pl3 207  ARG207      0.1354
    100  NH2       34.8520   -2.7850  -36.0720 N.pl3 207  ARG207      0.1354
    101  N         22.2650   -1.5940  -25.0360 N.3   227  THR227     -0.1203
    102  CA        22.1900   -1.7240  -26.4920 C.3   227  THR227      0.1994
    103  C         21.4350   -2.9750  -26.9280 C.2   227  THR227      0.2618
    104  O         20.6490   -3.0260  -27.8680 O.2   227  THR227     -0.2717
    105  CB        23.6080   -1.7940  -27.1110 C.3   227  THR227      0.1784
    106  OG1       24.3490   -0.6210  -26.7330 O.3   227  THR227     -0.2211
    107  CG2       23.5090   -1.8310  -28.6250 C.3   227  THR227      0.0376
    108  N         21.7270   -4.0340  -26.1760 N.am  228  CYS228     -0.1969
    109  CA        21.1580   -5.3480  -26.4490 C.3   228  CYS228      0.1712
    110  C         20.1860   -5.7230  -25.3270 C.2   228  CYS228      0.2296
    111  O         19.0670   -6.1350  -25.6630 O.2   228  CYS228     -0.2864
    112  CB        22.2980   -6.3580  -26.6140 C.3   228  CYS228      0.0983
    113  SG        23.4590   -5.8750  -27.9270 S.3   228  CYS228     -0.0798
    114  N         16.7880  -12.5550  -31.3220 N.3   263  TYR263     -0.1241
    115  CA        18.1950  -12.7890  -31.6340 C.3   263  TYR263      0.1605
    116  C         18.5080  -12.3460  -33.0600 C.2   263  TYR263      0.2264
    117  O         19.3740  -11.5030  -33.2900 O.2   263  TYR263     -0.2867
    118  CB        18.5850  -14.2560  -31.4800 C.3   263  TYR263      0.0534
    119  CG        18.5850  -14.8020  -30.0770 C.ar  263  TYR263     -0.0201
    120  CD1       19.3090  -14.2040  -29.0640 C.ar  263  TYR263     -0.0009
    121  CD2       17.8590  -15.9390  -29.7590 C.ar  263  TYR263     -0.0009
    122  CE1       19.3030  -14.7160  -27.7810 C.ar  263  TYR263      0.0417
    123  CE2       17.8450  -16.4610  -28.4740 C.ar  263  TYR263      0.0417
    124  CZ        18.5710  -15.8470  -27.4830 C.ar  263  TYR263      0.1957
    125  OH        18.5750  -16.3410  -26.2010 O.3   263  TYR263     -0.2866
    126  N         18.2560   -8.6430  -33.6570 N.3   266  GLN266     -0.1231
    127  CA        19.2970   -7.8790  -32.9790 C.3   266  GLN266      0.1698
    128  C         20.6720   -8.0820  -33.6050 C.2   266  GLN266      0.2592
    129  O         21.2970   -7.1040  -34.0300 O.2   266  GLN266     -0.2718
    130  CB        19.3080   -8.2600  -31.5020 C.3   266  GLN266      0.0381
    131  CG        19.9630   -7.2160  -30.6110 C.3   266  GLN266      0.0905
    132  CD        19.5900   -7.3550  -29.1510 C.2   266  GLN266      0.2608
    133  OE1       18.6190   -6.7440  -28.6850 O.2   266  GLN266     -0.2717
    134  NE2       20.3850   -8.1580  -28.4590 N.am  266  GLN266     -0.0878
    135  N         21.1610   -9.3160  -33.6680 N.am  267  CYS267     -0.1970
    136  CA        22.5020   -9.5810  -34.1950 C.3   267  CYS267      0.1712
    137  C         22.6680   -9.0760  -35.6270 C.2   267  CYS267      0.2296
    138  O         23.6350   -8.3830  -35.9600 O.2   267  CYS267     -0.2864
    139  CB        22.8400  -11.0720  -34.1490 C.3   267  CYS267      0.0983
    140  SG        22.4470  -11.9030  -32.6050 S.3   267  CYS267     -0.0798
    141  N         22.5510   -5.0010  -36.1510 N.3   270  CYS270     -0.1221
    142  CA        23.7860   -4.2490  -35.9860 C.3   270  CYS270      0.1808
    143  C         24.7700   -4.5310  -37.1240 C.2   270  CYS270      0.2601
    144  O         25.3560   -3.6020  -37.6820 O.2   270  CYS270     -0.2717
    145  CB        24.4420   -4.5870  -34.6470 C.3   270  CYS270      0.0970
    146  SG        26.0370   -3.7310  -34.4880 S.3   270  CYS270     -0.0800
    147  N         24.9250   -5.8110  -37.4430 N.am  271  HIS271     -0.1975
    148  CA        25.8410   -6.2410  -38.4970 C.3   271  HIS271      0.1656
    149  C         25.5610   -5.4510  -39.7640 C.2   271  HIS271      0.2291
    150  O         26.4420   -4.9250  -40.4460 O.2   271  HIS271     -0.2864
    151  CB        25.7320   -7.7520  -38.7280 C.3   271  HIS271      0.0771
    152  CG        26.3870   -8.5790  -37.6560 C.ar  271  HIS271      0.0820
    153  ND1       26.3380   -9.9540  -37.6260 N.ar  271  HIS271     -0.2267
    154  CD2       27.1220   -8.2330  -36.5710 C.ar  271  HIS271      0.1154
    155  CE1       27.0030  -10.4050  -36.5730 C.ar  271  HIS271      0.1986
    156  NE2       27.5000   -9.3780  -35.9000 N.ar  271  HIS271     -0.2212
    157  N         26.3840   -1.4140  -39.3750 N.3   274  MET274     -0.1245
    158  CA        27.7620   -0.9160  -39.4760 C.3   274  MET274      0.1570
    159  C         28.5380   -1.7280  -40.5190 C.2   274  MET274      0.2261
    160  O         29.7350   -1.9790  -40.3950 O.2   274  MET274     -0.2867
    161  CB        28.4290   -0.9040  -38.1090 C.3   274  MET274      0.0387
    162  CG        28.4330   -2.1830  -37.3150 C.3   274  MET274      0.0595
    163  SD        29.0910   -2.0170  -35.6480 S.3   274  MET274     -0.1393
    164  CE        30.5700   -1.0420  -35.9260 C.3   274  MET274      0.0692
    165  N         28.8580   -4.9080  -41.4410 N.3   276  VAL276     -0.1245
    166  CA        29.7820   -5.9990  -41.1080 C.3   276  VAL276      0.1561
    167  C         29.8840   -6.9560  -42.2860 C.2   276  VAL276      0.2260
    168  O         28.8680   -7.3680  -42.8470 O.2   276  VAL276     -0.2867
    169  CB        29.3700   -6.7610  -39.8440 C.3   276  VAL276      0.0252
    170  CG1       30.2200   -8.0190  -39.6960 C.3   276  VAL276      0.0019
    171  CG2       29.5040   -5.8850  -38.6070 C.3   276  VAL276      0.0019
    172  N         31.0500  -10.1010  -42.6500 N.3   278  ARG278     -0.1231
    173  CA        30.6140  -11.4650  -42.3860 C.3   278  ARG278      0.1679
    174  C         30.4810  -11.6300  -40.8770 C.2   278  ARG278      0.2434
    175  O         31.3280  -11.0960  -40.1460 O.2   278  ARG278     -0.2733
    176  CB        31.5600  -12.5260  -42.9310 C.3   278  ARG278      0.0321
    177  CG        31.8830  -12.5150  -44.4000 C.3   278  ARG278      0.0489
    178  CD        31.2150  -13.6210  -45.1860 C.3   278  ARG278      0.2205
    179  NE        31.1140  -13.2570  -46.5960 N.pl3 278  ARG278     -0.0865
    180  CZ        30.1950  -13.7660  -47.4090 C.cat 278  ARG278      0.5346
    181  NH1       29.3030  -14.6470  -46.9690 N.pl3 278  ARG278      0.1354
    182  NH2       30.1540  -13.3990  -48.6840 N.pl3 278  ARG278      0.1354
    183  N         29.4470  -12.3190  -40.4010 N.am  279  PRO279     -0.2729
    184  CA        28.5020  -13.0540  -41.2370 C.3   279  PRO279      0.1401
    185  C         27.4370  -12.1830  -41.8890 C.2   279  PRO279      0.2269
    186  O         26.9360  -11.2380  -41.2950 O.2   279  PRO279     -0.2865
    187  CB        27.7980  -13.9740  -40.2250 C.3   279  PRO279      0.0296
    188  CG        27.7600  -13.1150  -38.9960 C.3   279  PRO279      0.0237
    189  CD        29.1000  -12.4290  -38.9660 C.3   279  PRO279      0.0939
    190  N         27.6090  -19.6650  -39.6800 N.3   286  THR286     -0.1203
    191  CA        28.6520  -18.8700  -39.0410 C.3   286  THR286      0.1994
    192  C         28.2770  -18.4330  -37.6260 C.2   286  THR286      0.2618
    193  O         29.1650  -18.2020  -36.7840 O.2   286  THR286     -0.2717
    194  CB        28.9750  -17.6240  -39.8860 C.3   286  THR286      0.1784
    195  OG1       29.4630  -18.0240  -41.1720 O.3   286  THR286     -0.2211
    196  CG2       30.0600  -16.8140  -39.1830 C.3   286  THR286      0.0376
    197  N         26.9810  -18.3120  -37.3180 N.am  287  CYS287     -0.1969
    198  CA        26.5930  -17.9520  -35.9530 C.3   287  CYS287      0.1712
    199  C         26.2490  -19.1840  -35.1340 C.2   287  CYS287      0.2296
    200  O         26.3460  -19.1900  -33.9100 O.2   287  CYS287     -0.2864
    201  CB        25.3860  -17.0060  -35.9400 C.3   287  CYS287      0.0983
    202  SG        25.7640  -15.3470  -36.5400 S.3   287  CYS287     -0.0798
@<TRIPOS>BOND
     1   182   180    1
     2   180   181    1
     3   180   179    2
     4   179   178    1
     5   178   177    1
     6   177   176    1
     7   176   173    1
     8   168   167    2
     9   172   173    1
    10   173   174    1
    11   167   166    1
    12   185   186    2
    13   185   184    1
    14   165   166    1
    15   184   183    1
    16   184   187    1
    17   195   194    1
    18   166   169    1
    19   174   183   am
    20   174   175    2
    21   159   160    2
    22   159   158    1
    23   150   149    2
    24   183   189    1
    25   187   188    1
    26   194   196    1
    27   194   191    1
    28   169   170    1
    29   169   171    1
    30   149   148    1
    31   190   191    1
    32   158   157    1
    33   158   161    1
    34   191   192    1
    35   188   189    1
    36   151   148    1
    37   151   152    1
    38   148   147    1
    39   161   162    1
    40   144   143    2
    41   152   153   ar
    42   152   154   ar
    43   192   197   am
    44   192   193    2
    45   153   155   ar
    46   147   143   am
    47   197   198    1
    48   162   163    1
    49   143   142    1
    50   155   156   ar
    51   154   156   ar
    52   202   201    1
    53   141   142    1
    54   100    98    1
    55   142   145    1
    56   138   137    2
    57   198   201    1
    58   198   199    1
    59   164   163    1
    60   137   136    1
    61    97    98    2
    62    97    96    1
    63   199   200    2
    64    98    99    1
    65   145   146    1
    66    96    95    1
    67   136   139    1
    68   136   135    1
    69   139   140    1
    70   129   128    2
    71    13    11    1
    72   135   128   am
    73   126   127    1
    74   128   127    1
    75     7     8    1
    76    95    94    1
    77     1     2    1
    78   117   116    2
    79   116   115    1
    80    94    91    1
    81   127   130    1
    82     8    11    1
    83     8     9    1
    84    64    63    1
    85    11    12    1
    86    75    74   ar
    87    75    73   ar
    88    81    80    1
    89     3     2    1
    90     3     4    2
    91    93    92    2
    92     2     5    1
    93    74    72   ar
    94    91    92    1
    95    91    90    1
    96    89    87    1
    97    12    14    1
    98    28    27    1
    99    73    71   ar
   100   115   118    1
   101   115   114    1
   102    63    65    1
   103    63    62    2
   104   130   131    1
   105   118   119    1
   106     9    10    2
   107    27    24    1
   108    80    77    1
   109     5     6    1
   110    79    78    2
   111    61    62    1
   112    61    60    1
   113    72    71   ar
   114    24    23    1
   115    24    25    1
   116    71    70    1
   117   131   132    1
   118    87    88    1
   119    87    86    1
   120    53    52    1
   121    78    77    1
   122    78    82   am
   123    83    82    1
   124    83    86    1
   125    83    84    1
   126    77    76    1
   127   119   121   ar
   128   119   120   ar
   129    60    59    1
   130    54    52    1
   131    32    31    2
   132    45    43   ar
   133    45    47   ar
   134    85    84    2
   135    29    25   am
   136    29    30    1
   137   121   123   ar
   138    43    42   ar
   139    25    26    2
   140    70    67    1
   141    52    49    1
   142    67    66    1
   143    67    68    1
   144    69    68    2
   145   132   133    2
   146   132   134   am
   147    31    30    1
   148    31    37   am
   149    33    30    1
   150    33    34    1
   151   120   122   ar
   152    58    57    2
   153    48    49    1
   154    48    39   am
   155    47    46   ar
   156    38    37    1
   157    38    41    1
   158    38    39    1
   159    66    57   am
   160   107   105    1
   161    59    56    1
   162    57    56    1
   163   123   124   ar
   164    42    41    1
   165    42    44   ar
   166    49    50    1
   167    36    34   am
   168    51    50    2
   169    18    17    2
   170    22    20    1
   171    39    40    2
   172    34    35    2
   173   113   112    1
   174   104   103    2
   175   122   124   ar
   176    56    55    1
   177    21    19    1
   178    19    20    1
   179    19    16    1
   180    46    44   ar
   181   124   125    1
   182   105   106    1
   183   105   102    1
   184    17    16    1
   185   103   102    1
   186   103   108   am
   187   112   109    1
   188    16    15    1
   189   102   101    1
   190   109   108    1
   191   109   110    1
   192   111   110    2
