@<TRIPOS>MOLECULE
tmp/1ofyB01.pdb
 183 178 0 0 0
SMALL
GASTEIGER

@<TRIPOS>ATOM
      1  N         36.2580   31.4130  -35.0050 N.3     8  SER8       -0.1202
      2  CA        35.1020   32.1160  -35.5460 C.3     8  SER8        0.2020
      3  C         34.7790   33.4190  -34.8360 C.2     8  SER8        0.2619
      4  O         34.1550   34.3230  -35.4070 O.2     8  SER8       -0.2717
      5  CB        33.8570   31.2060  -35.4510 C.3     8  SER8        0.2103
      6  OG        33.4760   31.1790  -34.0700 O.3     8  SER8       -0.2182
      7  N         35.1490   33.5850  -33.5640 N.am    9  GLY9       -0.1942
      8  CA        34.7260   34.8290  -32.9190 C.3     9  GLY9        0.2014
      9  C         33.5090   34.6140  -32.0460 C.2     9  GLY9        0.2639
     10  O         33.2380   35.3870  -31.1210 O.2     9  GLY9       -0.2714
     11  N         32.7480   33.5410  -32.3000 N.am   10  ALA10      -0.1963
     12  CA        31.6720   33.2170  -31.3510 C.3    10  ALA10       0.1713
     13  C         32.2920   33.0080  -29.9790 C.2    10  ALA10       0.2458
     14  O         33.4560   32.5980  -29.8700 O.2    10  ALA10      -0.2730
     15  CB        30.8980   31.9910  -31.7940 C.3    10  ALA10       0.0333
     16  N         31.5570   33.2840  -28.9150 N.am   11  PRO11      -0.2727
     17  CA        32.0990   32.9530  -27.5920 C.3    11  PRO11       0.1402
     18  C         32.3720   31.4480  -27.5630 C.2    11  PRO11       0.2269
     19  O         31.7180   30.6730  -28.2670 O.2    11  PRO11      -0.2865
     20  CB        31.0000   33.3460  -26.6250 C.3    11  PRO11       0.0296
     21  CG        30.0740   34.2210  -27.4000 C.3    11  PRO11       0.0237
     22  CD        30.2280   33.8990  -28.8550 C.3    11  PRO11       0.0939
     23  N         28.4370   29.1130  -24.6190 N.3    14  ILE14      -0.1231
     24  CA        27.3480   30.0740  -24.5050 C.3    14  ILE14       0.1692
     25  C         26.1230   29.5890  -23.7420 C.2    14  ILE14       0.2592
     26  O         25.6050   28.5250  -24.0810 O.2    14  ILE14      -0.2718
     27  CB        26.8450   30.4570  -25.9200 C.3    14  ILE14       0.0266
     28  CG1       27.8740   30.2780  -27.0290 C.3    14  ILE14       0.0019
     29  CG2       26.2990   31.8740  -25.8840 C.3    14  ILE14       0.0020
     30  CD1       27.3520   30.5090  -28.4280 C.3    14  ILE14       0.0001
     31  N         25.6320   30.3370  -22.7570 N.am   15  VAL15      -0.1966
     32  CA        24.3510   29.9780  -22.1480 C.3    15  VAL15       0.1727
     33  C         23.1840   30.4500  -23.0220 C.2    15  VAL15       0.2616
     34  O         23.0590   31.6350  -23.3500 O.2    15  VAL15      -0.2715
     35  CB        24.1990   30.5470  -20.7360 C.3    15  VAL15       0.0290
     36  CG1       22.9880   29.9310  -20.0430 C.3    15  VAL15       0.0023
     37  CG2       25.4440   30.3010  -19.8970 C.3    15  VAL15       0.0023
     38  N         22.3350   29.5040  -23.4120 N.am   16  MET16      -0.1977
     39  CA        21.1020   29.7670  -24.1400 C.3    16  MET16       0.1605
     40  C         19.9100   29.7300  -23.1850 C.2    16  MET16       0.2287
     41  O         19.7690   28.7930  -22.3910 O.2    16  MET16      -0.2864
     42  CB        20.9390   28.7460  -25.2700 C.3    16  MET16       0.0413
     43  CG        22.1610   28.7050  -26.1730 C.3    16  MET16       0.0598
     44  SD        22.0920   27.4830  -27.4730 S.3    16  MET16      -0.1393
     45  CE        20.9010   28.1770  -28.6130 C.3    16  MET16       0.0692
     46  N         25.9030   25.6810  -24.6120 N.3    35  PHE35      -0.1241
     47  CA        26.3990   25.2140  -25.8880 C.3    35  PHE35       0.1605
     48  C         27.9020   25.4710  -26.0440 C.2    35  PHE35       0.2264
     49  O         28.3620   26.6050  -25.8860 O.2    35  PHE35      -0.2867
     50  CB        25.6520   25.9440  -26.9990 C.3    35  PHE35       0.0534
     51  CG        26.1000   25.6060  -28.4090 C.ar   35  PHE35      -0.0203
     52  CD1       25.8160   24.3660  -28.9560 C.ar   35  PHE35      -0.0042
     53  CD2       26.7980   26.5370  -29.1600 C.ar   35  PHE35      -0.0042
     54  CE1       26.2170   24.0560  -30.2380 C.ar   35  PHE35      -0.0003
     55  CE2       27.1940   26.2270  -30.4490 C.ar   35  PHE35      -0.0003
     56  CZ        26.9070   24.9920  -30.9970 C.ar   35  PHE35      -0.0000
     57  N         30.4510   26.1780  -28.3040 N.3    37  HIS37      -0.1241
     58  CA        30.7080   26.5940  -29.6810 C.3    37  HIS37       0.1621
     59  C         32.0810   26.1170  -30.1600 C.2    37  HIS37       0.2264
     60  O         32.2330   25.7090  -31.3140 O.2    37  HIS37      -0.2867
     61  CB        30.5960   28.1140  -29.8340 C.3    37  HIS37       0.0745
     62  CG        30.2100   28.5520  -31.2120 C.ar   37  HIS37       0.0817
     63  ND1       31.0310   28.4140  -32.3080 N.ar   37  HIS37      -0.2268
     64  CD2       29.0750   29.1230  -31.6890 C.ar   37  HIS37       0.1154
     65  CE1       30.4210   28.8800  -33.3900 C.ar   37  HIS37       0.1986
     66  NE2       29.2210   29.3260  -33.0470 N.ar   37  HIS37      -0.2212
     67  N         32.0970   22.6200  -31.3280 N.3    40  HIS40      -0.1226
     68  CA        31.2170   22.3710  -32.4690 C.3    40  HIS40       0.1752
     69  C         31.8330   22.8970  -33.7560 C.2    40  HIS40       0.2595
     70  O         31.8400   22.2710  -34.8230 O.2    40  HIS40      -0.2718
     71  CB        29.8480   23.0020  -32.1980 C.3    40  HIS40       0.0759
     72  CG        28.9340   22.0970  -31.4230 C.ar   40  HIS40       0.0818
     73  ND1       28.9590   22.0480  -30.0520 N.ar   40  HIS40      -0.2268
     74  CD2       27.9800   21.2140  -31.8190 C.ar   40  HIS40       0.1154
     75  CE1       28.0630   21.1730  -29.6110 C.ar   40  HIS40       0.1986
     76  NE2       27.4680   20.6680  -30.6680 N.ar   40  HIS40      -0.2212
     77  N         32.3760   24.1200  -33.6720 N.am   41  GLU41      -0.1979
     78  CA        32.8790   24.6780  -34.9330 C.3    41  GLU41       0.1602
     79  C         34.1310   23.9590  -35.3930 C.2    41  GLU41       0.2287
     80  O         34.4920   23.9520  -36.5670 O.2    41  GLU41      -0.2864
     81  CB        33.1280   26.1710  -34.7430 C.3    41  GLU41       0.0415
     82  CG        34.3420   26.4480  -33.8590 C.3    41  GLU41       0.1163
     83  CD        34.4820   27.9550  -33.7080 C.2    41  GLU41       0.3649
     84  OE1       33.5710   28.5270  -33.0750 O.co2  41  GLU41      -0.2457
     85  OE2       35.4690   28.5200  -34.2260 O.co2  41  GLU41      -0.2457
     86  N         32.1200   20.8730  -37.2740 N.3    44  ILE44      -0.1231
     87  CA        31.2310   21.1660  -38.4090 C.3    44  ILE44       0.1692
     88  C         31.8110   22.3070  -39.2130 C.2    44  ILE44       0.2592
     89  O         31.9460   23.4080  -38.6730 O.2    44  ILE44      -0.2718
     90  CB        29.8220   21.5220  -37.9070 C.3    44  ILE44       0.0266
     91  CG1       29.3060   20.4970  -36.8900 C.3    44  ILE44       0.0019
     92  CG2       28.8640   21.7130  -39.0690 C.3    44  ILE44       0.0020
     93  CD1       29.3520   19.0790  -37.4270 C.3    44  ILE44       0.0001
     94  N         32.1110   22.0550  -40.4770 N.am   45  ASP45      -0.1960
     95  CA        32.8680   22.9780  -41.3120 C.3    45  ASP45       0.1840
     96  C         32.1470   24.2680  -41.6640 C.2    45  ASP45       0.2622
     97  O         32.6640   25.3570  -41.3840 O.2    45  ASP45      -0.2715
     98  CB        33.2920   22.2290  -42.5920 C.3    45  ASP45       0.1450
     99  CG        34.3920   21.2350  -42.2500 C.2    45  ASP45       0.3671
    100  OD1       35.5000   21.6710  -41.8730 O.co2  45  ASP45      -0.2456
    101  OD2       34.1410   20.0180  -42.3470 O.co2  45  ASP45      -0.2456
    102  N         30.9740   24.1770  -42.2810 N.am   46  ASN46      -0.1958
    103  CA        30.2950   25.3770  -42.7640 C.3    46  ASN46       0.1819
    104  C         29.4820   26.0590  -41.6770 C.2    46  ASN46       0.2621
    105  O         28.6590   25.4390  -41.0040 O.2    46  ASN46      -0.2715
    106  CB        29.3860   25.0250  -43.9490 C.3    46  ASN46       0.1195
    107  CG        28.6150   26.2080  -44.4960 C.2    46  ASN46       0.2630
    108  OD1       28.7750   27.3500  -44.0560 O.2    46  ASN46      -0.2716
    109  ND2       27.7560   25.9530  -45.4800 N.am   46  ASN46      -0.0877
    110  N         29.6530   27.3650  -41.5250 N.am   47  CYS47      -0.1968
    111  CA        28.8720   28.0580  -40.5030 C.3    47  CYS47       0.1712
    112  C         27.3650   28.0130  -40.7890 C.2    47  CYS47       0.2296
    113  O         26.5770   27.9760  -39.8420 O.2    47  CYS47      -0.2864
    114  CB        29.2670   29.5290  -40.3560 C.3    47  CYS47       0.0983
    115  SG        31.0250   29.9010  -40.2480 S.3    47  CYS47      -0.0798
    116  N         24.4890   25.4900  -39.4910 N.3    50  CYS50      -0.1221
    117  CA        23.6670   25.8010  -38.3390 C.3    50  CYS50       0.1808
    118  C         22.9770   27.1480  -38.4890 C.2    50  CYS50       0.2601
    119  O         21.7530   27.1960  -38.3690 O.2    50  CYS50      -0.2717
    120  CB        24.5520   25.8030  -37.0880 C.3    50  CYS50       0.0970
    121  SG        25.3050   24.1720  -36.8470 S.3    50  CYS50      -0.0800
    122  N         23.7780   28.1820  -38.7350 N.am   51  HIS51      -0.1975
    123  CA        23.2280   29.5210  -38.9580 C.3    51  HIS51       0.1656
    124  C         22.6530   29.5740  -40.3770 C.2    51  HIS51       0.2291
    125  O         23.2340   30.1790  -41.2810 O.2    51  HIS51      -0.2864
    126  CB        24.2660   30.6140  -38.7480 C.3    51  HIS51       0.0771
    127  CG        25.0430   30.5280  -37.4720 C.ar   51  HIS51       0.0820
    128  ND1       24.6130   31.0680  -36.2830 N.ar   51  HIS51      -0.2267
    129  CD2       26.2390   29.9600  -37.2130 C.ar   51  HIS51       0.1154
    130  CE1       25.5050   30.8400  -35.3310 C.ar   51  HIS51       0.1986
    131  NE2       26.5010   30.1670  -35.8810 N.ar   51  HIS51      -0.2212
    132  N         25.3270   35.0090  -38.5610 N.3    56  PRO56      -0.2102
    133  CA        25.3910   34.2490  -37.3050 C.3    56  PRO56       0.1504
    134  C         24.8100   35.0830  -36.1760 C.2    56  PRO56       0.2576
    135  O         25.4640   36.0000  -35.6910 O.2    56  PRO56      -0.2718
    136  CB        26.8810   34.0330  -37.0720 C.3    56  PRO56       0.0282
    137  CG        27.5510   34.4970  -38.3210 C.3    56  PRO56       0.0208
    138  CD        26.6480   35.5760  -38.8760 C.3    56  PRO56       0.0893
    139  N         23.5870   34.7540  -35.8000 N.am   57  VAL57      -0.1966
    140  CA        22.8730   35.4700  -34.7430 C.3    57  VAL57       0.1727
    141  C         22.1820   34.4670  -33.8290 C.2    57  VAL57       0.2617
    142  O         21.9400   33.3250  -34.2310 O.2    57  VAL57      -0.2715
    143  CB        21.8890   36.4690  -35.3680 C.3    57  VAL57       0.0290
    144  CG1       22.6460   37.5670  -36.1120 C.3    57  VAL57       0.0023
    145  CG2       20.9330   35.7940  -36.3420 C.3    57  VAL57       0.0023
    146  N         21.8640   34.8430  -32.5970 N.am   58  SER58      -0.1936
    147  CA        21.1970   33.8810  -31.7190 C.3    58  SER58       0.2055
    148  C         19.8700   33.4470  -32.3550 C.2    58  SER58       0.2643
    149  O         19.0970   34.2920  -32.7990 O.2    58  SER58      -0.2714
    150  CB        20.9890   34.4280  -30.3210 C.3    58  SER58       0.2130
    151  OG        20.1570   35.5610  -30.2290 O.3    58  SER58      -0.2179
    152  N         19.6770   32.1390  -32.3750 N.am   59  CYS59      -0.1953
    153  CA        18.4790   31.4970  -32.8860 C.3    59  CYS59       0.1843
    154  C         17.2410   32.1330  -32.2770 C.2    59  CYS59       0.2626
    155  O         16.2640   32.3690  -32.9870 O.2    59  CYS59      -0.2714
    156  CB        18.5050   29.9930  -32.6120 C.3    59  CYS59       0.0997
    157  SG        20.0970   29.1750  -32.8710 S.3    59  CYS59      -0.0797
    158  N         17.2280   32.4600  -30.9920 N.am   60  SER60      -0.1950
    159  CA        15.9980   32.9690  -30.3930 C.3    60  SER60       0.1924
    160  C         15.6990   34.4020  -30.8210 C.2    60  SER60       0.2314
    161  O         14.7260   35.0090  -30.3660 O.2    60  SER60      -0.2863
    162  CB        16.0410   32.9010  -28.8680 C.3    60  SER60       0.2116
    163  OG        17.1170   33.6210  -28.3040 O.3    60  SER60      -0.2180
    164  N         15.1620   23.8000  -31.6450 N.3    80  MET80      -0.1245
    165  CA        16.2370   23.1130  -30.9470 C.3    80  MET80       0.1570
    166  C         16.0890   21.6010  -30.9920 C.2    80  MET80       0.2261
    167  O         17.1120   20.9090  -30.9290 O.2    80  MET80      -0.2867
    168  CB        16.3120   23.5720  -29.4810 C.3    80  MET80       0.0387
    169  CG        16.4760   25.0780  -29.3340 C.3    80  MET80       0.0595
    170  SD        17.9960   25.6810  -30.1070 S.3    80  MET80      -0.1393
    171  CE        17.3960   26.3490  -31.6470 C.3    80  MET80       0.0692
    172  N         19.5650   20.8770  -32.8650 N.3    97  CYS97      -0.1235
    173  CA        20.5050   20.1660  -32.0000 C.3    97  CYS97       0.1677
    174  C         20.2500   18.6570  -32.0800 C.2    97  CYS97       0.2270
    175  O         21.1510   17.8570  -32.3180 O.2    97  CYS97      -0.2867
    176  CB        20.4280   20.5870  -30.5420 C.3    97  CYS97       0.0956
    177  SG        20.2760   22.3410  -30.1930 S.3    97  CYS97      -0.0801
    178  N         20.7800   16.9510  -35.8110 N.3   100  CYS100     -0.1235
    179  CA        22.1510   16.6820  -36.2520 C.3   100  CYS100      0.1677
    180  C         22.7560   15.5160  -35.4690 C.2   100  CYS100      0.2270
    181  O         23.3680   14.6110  -36.0430 O.2   100  CYS100     -0.2867
    182  CB        23.0470   17.9130  -36.1190 C.3   100  CYS100      0.0956
    183  SG        24.7310   17.5330  -36.6810 S.3   100  CYS100     -0.0801
@<TRIPOS>BOND
     1   109   107   am
     2   107   108    2
     3   107   106    1
     4   106   103    1
     5   103   102    1
     6   103   104    1
     7    98    99    1
     8    98    95    1
     9   101    99   ar
    10   102    96   am
    11    99   100   ar
    12   104   110   am
    13   104   105    2
    14    96    97    2
    15    96    95    1
    16   110   111    1
    17    95    94    1
    18   125   124    2
    19   112   111    1
    20   112   113    2
    21   111   114    1
    22    94    88   am
    23   124   123    1
    24   114   115    1
    25   116   117    1
    26    88    89    2
    27    88    87    1
    28    92    90    1
    29   123   126    1
    30   123   122    1
    31   138   132    1
    32   138   137    1
    33   126   127    1
    34   122   118   am
    35   132   133    1
    36   118   119    2
    37   118   117    1
    38    87    90    1
    39    87    86    1
    40   117   120    1
    41   137   136    1
    42    90    91    1
    43   127   129   ar
    44   127   128   ar
    45    93    91    1
    46   133   136    1
    47   133   134    1
    48   129   131   ar
    49   120   121    1
    50   183   182    1
    51    80    79    2
    52   145   143    1
    53   128   130   ar
    54   179   182    1
    55   179   178    1
    56   179   180    1
    57   134   139   am
    58   134   135    2
    59   144   143    1
    60   181   180    2
    61   131   130   ar
    62   139   140    1
    63     2     5    1
    64     2     1    1
    65     2     3    1
    66     5     6    1
    67     4     3    2
    68    79    78    1
    69   143   140    1
    70    78    81    1
    71    78    77    1
    72     3     7   am
    73    70    69    2
    74    81    82    1
    75   140   141    1
    76   142   141    2
    77    85    83   ar
    78    82    83    1
    79   141   146   am
    80    69    77   am
    81    69    68    1
    82    83    84   ar
    83     7     8    1
    84    65    66   ar
    85    65    63   ar
    86    66    64   ar
    87   155   154    2
    88     8     9    1
    89   153   156    1
    90   153   152    1
    91   153   154    1
    92   157   156    1
    93   172   173    1
    94   149   148    2
    95   146   147    1
    96    68    71    1
    97    68    67    1
    98   152   148   am
    99   148   147    1
   100   175   174    2
   101    63    62   ar
   102    11     9   am
   103    11    12    1
   104   154   158   am
   105    71    72    1
   106   174   173    1
   107     9    10    2
   108   173   176    1
   109    74    72   ar
   110    74    76   ar
   111    15    12    1
   112   147   150    1
   113    64    62   ar
   114   171   170    1
   115   164   165    1
   116    72    73   ar
   117    12    13    1
   118    60    59    2
   119    62    61    1
   120    56    55   ar
   121    56    54   ar
   122   158   159    1
   123   166   165    1
   124   166   167    2
   125   165   168    1
   126   160   159    1
   127   160   161    2
   128    76    75   ar
   129   176   177    1
   130    55    53   ar
   131   159   162    1
   132   150   151    1
   133    54    52   ar
   134    59    58    1
   135   170   169    1
   136    73    75   ar
   137    13    14    2
   138    13    16   am
   139    61    58    1
   140    58    57    1
   141   168   169    1
   142    53    51   ar
   143    52    51   ar
   144    16    22    1
   145    16    17    1
   146   162   163    1
   147    22    21    1
   148    45    44    1
   149    30    28    1
   150    51    50    1
   151    19    18    2
   152    17    18    1
   153    17    20    1
   154    44    43    1
   155    21    20    1
   156    28    27    1
   157    50    47    1
   158    43    42    1
   159    48    47    1
   160    48    49    2
   161    27    29    1
   162    27    24    1
   163    47    46    1
   164    42    39    1
   165    23    24    1
   166    24    25    1
   167    39    38    1
   168    39    40    1
   169    26    25    2
   170    25    31   am
   171    38    33   am
   172    34    33    2
   173    40    41    2
   174    33    32    1
   175    31    32    1
   176    32    35    1
   177    35    36    1
   178    35    37    1
