@<TRIPOS>MOLECULE
tmp/1ofyB03.pdb
 229 217 0 0 0
SMALL
GASTEIGER

@<TRIPOS>ATOM
      1  N         22.3350   29.5040  -23.4120 N.3    16  MET16      -0.1245
      2  CA        21.1020   29.7670  -24.1400 C.3    16  MET16       0.1570
      3  C         19.9100   29.7300  -23.1850 C.2    16  MET16       0.2261
      4  O         19.7690   28.7930  -22.3910 O.2    16  MET16      -0.2867
      5  CB        20.9390   28.7460  -25.2700 C.3    16  MET16       0.0387
      6  CG        22.1610   28.7050  -26.1730 C.3    16  MET16       0.0595
      7  SD        22.0920   27.4830  -27.4730 S.3    16  MET16      -0.1393
      8  CE        20.9010   28.1770  -28.6130 C.3    16  MET16       0.0692
      9  N         20.6460   25.9630  -21.4110 N.3    33  VAL33      -0.1231
     10  CA        21.6120   25.0910  -22.0650 C.3    33  VAL33       0.1692
     11  C         22.9230   25.8250  -22.3260 C.2    33  VAL33       0.2592
     12  O         22.9380   26.9080  -22.9150 O.2    33  VAL33      -0.2718
     13  CB        21.0400   24.5610  -23.3900 C.3    33  VAL33       0.0266
     14  CG1       22.1000   23.8580  -24.2230 C.3    33  VAL33       0.0020
     15  CG2       19.8650   23.6250  -23.0930 C.3    33  VAL33       0.0020
     16  N         24.0160   25.2090  -21.8860 N.am   34  VAL34      -0.1966
     17  CA        25.3420   25.6980  -22.2540 C.3    34  VAL34       0.1727
     18  C         25.8640   24.9800  -23.4930 C.2    34  VAL34       0.2616
     19  O         26.2260   23.8020  -23.4380 O.2    34  VAL34      -0.2715
     20  CB        26.3470   25.5320  -21.1030 C.3    34  VAL34       0.0290
     21  CG1       27.7240   26.0090  -21.5560 C.3    34  VAL34       0.0023
     22  CG2       25.8660   26.2920  -19.8810 C.3    34  VAL34       0.0023
     23  N         25.9030   25.6810  -24.6120 N.am   35  PHE35      -0.1960
     24  CA        26.3990   25.2140  -25.8880 C.3    35  PHE35       0.1771
     25  C         27.9020   25.4710  -26.0440 C.2    35  PHE35       0.2619
     26  O         28.3620   26.6050  -25.8860 O.2    35  PHE35      -0.2715
     27  CB        25.6520   25.9440  -26.9990 C.3    35  PHE35       0.0574
     28  CG        26.1000   25.6060  -28.4090 C.ar   35  PHE35      -0.0200
     29  CD1       25.8160   24.3660  -28.9560 C.ar   35  PHE35      -0.0042
     30  CD2       26.7980   26.5370  -29.1600 C.ar   35  PHE35      -0.0042
     31  CE1       26.2170   24.0560  -30.2380 C.ar   35  PHE35      -0.0003
     32  CE2       27.1940   26.2270  -30.4490 C.ar   35  PHE35      -0.0003
     33  CZ        26.9070   24.9920  -30.9970 C.ar   35  PHE35      -0.0000
     34  N         28.6640   24.4240  -26.3450 N.am   36  ASN36      -0.1972
     35  CA        30.1060   24.5530  -26.5190 C.3    36  ASN36       0.1688
     36  C         30.4040   24.8870  -27.9760 C.2    36  ASN36       0.2292
     37  O         30.5800   23.9810  -28.8050 O.2    36  ASN36      -0.2864
     38  CB        30.8110   23.2680  -26.0660 C.3    36  ASN36       0.1181
     39  CG        32.3100   23.4490  -25.8900 C.2    36  ASN36       0.2629
     40  OD1       32.9630   24.1650  -26.6590 O.2    36  ASN36      -0.2716
     41  ND2       32.8730   22.8070  -24.8710 N.am   36  ASN36      -0.0877
     42  N         33.9350   23.3750  -29.4730 N.3    39  ILE39      -0.1231
     43  CA        34.0730   22.0270  -30.0410 C.3    39  ILE39       0.1692
     44  C         33.2110   21.8760  -31.2730 C.2    39  ILE39       0.2592
     45  O         33.5000   21.1160  -32.2010 O.2    39  ILE39      -0.2718
     46  CB        33.7540   20.9650  -28.9770 C.3    39  ILE39       0.0266
     47  CG1       32.2680   20.7710  -28.6830 C.3    39  ILE39       0.0019
     48  CG2       34.5080   21.2760  -27.6870 C.3    39  ILE39       0.0020
     49  CD1       31.7960   19.3500  -28.9150 C.3    39  ILE39       0.0001
     50  N         32.0970   22.6200  -31.3280 N.am   40  HIS40      -0.1976
     51  CA        31.2170   22.3710  -32.4690 C.3    40  HIS40       0.1656
     52  C         31.8330   22.8970  -33.7560 C.2    40  HIS40       0.2291
     53  O         31.8400   22.2710  -34.8230 O.2    40  HIS40      -0.2864
     54  CB        29.8480   23.0020  -32.1980 C.3    40  HIS40       0.0771
     55  CG        28.9340   22.0970  -31.4230 C.ar   40  HIS40       0.0820
     56  ND1       28.9590   22.0480  -30.0520 N.ar   40  HIS40      -0.2267
     57  CD2       27.9800   21.2140  -31.8190 C.ar   40  HIS40       0.1154
     58  CE1       28.0630   21.1730  -29.6110 C.ar   40  HIS40       0.1986
     59  NE2       27.4680   20.6680  -30.6680 N.ar   40  HIS40      -0.2212
     60  N         34.2970   20.9050  -35.5190 N.3    43  LYS43      -0.1231
     61  CA        33.9100   19.6530  -36.1730 C.3    43  LYS43       0.1693
     62  C         33.0260   19.9040  -37.3840 C.2    43  LYS43       0.2591
     63  O         33.1390   19.2230  -38.4030 O.2    43  LYS43      -0.2718
     64  CB        33.1830   18.7420  -35.1800 C.3    43  LYS43       0.0285
     65  CG        34.0840   17.7120  -34.5230 C.3    43  LYS43       0.0035
     66  CD        34.5060   16.6570  -35.5380 C.3    43  LYS43       0.0206
     67  CE        35.2690   15.5250  -34.8650 C.3    43  LYS43       0.1093
     68  NZ        36.0710   16.0180  -33.7090 N.3    43  LYS43      -0.1314
     69  N         32.1200   20.8730  -37.2740 N.am   44  ILE44      -0.1980
     70  CA        31.2310   21.1660  -38.4090 C.3    44  ILE44       0.1595
     71  C         31.8110   22.3070  -39.2130 C.2    44  ILE44       0.2287
     72  O         31.9460   23.4080  -38.6730 O.2    44  ILE44      -0.2864
     73  CB        29.8220   21.5220  -37.9070 C.3    44  ILE44       0.0276
     74  CG1       29.3060   20.4970  -36.8900 C.3    44  ILE44       0.0022
     75  CG2       28.8640   21.7130  -39.0690 C.3    44  ILE44       0.0022
     76  CD1       29.3520   19.0790  -37.4270 C.3    44  ILE44       0.0001
     77  N         25.6440   25.7720  -41.9740 N.3    49  THR49      -0.1203
     78  CA        25.0070   24.5010  -41.6280 C.3    49  THR49       0.1994
     79  C         24.0330   24.7240  -40.4760 C.2    49  THR49       0.2618
     80  O         22.9030   24.2490  -40.4650 O.2    49  THR49      -0.2717
     81  CB        26.0680   23.4500  -41.2800 C.3    49  THR49       0.1784
     82  OG1       26.5930   22.9070  -42.5080 O.3    49  THR49      -0.2211
     83  CG2       25.4710   22.2860  -40.5160 C.3    49  THR49       0.0376
     84  N         24.4890   25.4900  -39.4910 N.am   50  CYS50      -0.1969
     85  CA        23.6670   25.8010  -38.3390 C.3    50  CYS50       0.1712
     86  C         22.9770   27.1480  -38.4890 C.2    50  CYS50       0.2296
     87  O         21.7530   27.1960  -38.3690 O.2    50  CYS50      -0.2864
     88  CB        24.5520   25.8030  -37.0880 C.3    50  CYS50       0.0983
     89  SG        25.3050   24.1720  -36.8470 S.3    50  CYS50      -0.0798
     90  N         19.6770   32.1390  -32.3750 N.3    59  CYS59      -0.1235
     91  CA        18.4790   31.4970  -32.8860 C.3    59  CYS59       0.1677
     92  C         17.2410   32.1330  -32.2770 C.2    59  CYS59       0.2270
     93  O         16.2640   32.3690  -32.9870 O.2    59  CYS59      -0.2867
     94  CB        18.5050   29.9930  -32.6120 C.3    59  CYS59       0.0956
     95  SG        20.0970   29.1750  -32.8710 S.3    59  CYS59      -0.0801
     96  N         15.1620   23.8000  -31.6450 N.3    80  MET80      -0.1245
     97  CA        16.2370   23.1130  -30.9470 C.3    80  MET80       0.1570
     98  C         16.0890   21.6010  -30.9920 C.2    80  MET80       0.2261
     99  O         17.1120   20.9090  -30.9290 O.2    80  MET80      -0.2867
    100  CB        16.3120   23.5720  -29.4810 C.3    80  MET80       0.0387
    101  CG        16.4760   25.0780  -29.3340 C.3    80  MET80       0.0595
    102  SD        17.9960   25.6810  -30.1070 S.3    80  MET80      -0.1393
    103  CE        17.3960   26.3490  -31.6470 C.3    80  MET80       0.0692
    104  N         19.0400   22.7620  -39.5450 N.3    95  VAL95      -0.1231
    105  CA        19.2440   21.6420  -38.6390 C.3    95  VAL95       0.1692
    106  C         18.8920   22.0390  -37.2020 C.2    95  VAL95       0.2593
    107  O         18.9000   23.2220  -36.8480 O.2    95  VAL95      -0.2718
    108  CB        20.6900   21.1030  -38.6550 C.3    95  VAL95       0.0266
    109  CG1       21.0260   20.4720  -39.9940 C.3    95  VAL95       0.0020
    110  CG2       21.6600   22.2250  -38.3200 C.3    95  VAL95       0.0020
    111  N         18.5970   21.0300  -36.3840 N.am   96  SER96      -0.1938
    112  CA        18.3560   21.2270  -34.9610 C.3    96  SER96       0.2055
    113  C         19.4440   20.5290  -34.1460 C.2    96  SER96       0.2643
    114  O         20.1410   19.6760  -34.7020 O.2    96  SER96      -0.2714
    115  CB        16.9860   20.6930  -34.5300 C.3    96  SER96       0.2130
    116  OG        16.9300   19.2750  -34.5720 O.3    96  SER96      -0.2179
    117  N         19.5650   20.8770  -32.8650 N.am   97  CYS97      -0.1967
    118  CA        20.5050   20.1660  -32.0000 C.3    97  CYS97       0.1712
    119  C         20.2500   18.6570  -32.0800 C.2    97  CYS97       0.2296
    120  O         21.1510   17.8570  -32.3180 O.2    97  CYS97      -0.2864
    121  CB        20.4280   20.5870  -30.5420 C.3    97  CYS97       0.0983
    122  SG        20.2760   22.3410  -30.1930 S.3    97  CYS97      -0.0798
    123  N         20.7800   16.9510  -35.8110 N.3   100  CYS100     -0.1221
    124  CA        22.1510   16.6820  -36.2520 C.3   100  CYS100      0.1808
    125  C         22.7560   15.5160  -35.4690 C.2   100  CYS100      0.2601
    126  O         23.3680   14.6110  -36.0430 O.2   100  CYS100     -0.2717
    127  CB        23.0470   17.9130  -36.1190 C.3   100  CYS100      0.0970
    128  SG        24.7310   17.5330  -36.6810 S.3   100  CYS100     -0.0800
    129  N         22.5760   15.5360  -34.1490 N.am  101  HIS101     -0.1975
    130  CA        23.0760   14.4340  -33.3320 C.3   101  HIS101      0.1656
    131  C         22.5120   13.1150  -33.8410 C.2   101  HIS101      0.2291
    132  O         23.2460   12.1270  -33.9790 O.2   101  HIS101     -0.2864
    133  CB        22.7370   14.6750  -31.8610 C.3   101  HIS101      0.0771
    134  CG        23.4880   15.8410  -31.2930 C.ar  101  HIS101      0.0820
    135  ND1       23.2980   16.3230  -30.0250 N.ar  101  HIS101     -0.2267
    136  CD2       24.4450   16.6200  -31.8570 C.ar  101  HIS101      0.1154
    137  CE1       24.1070   17.3560  -29.8280 C.ar  101  HIS101      0.1986
    138  NE2       24.8210   17.5530  -30.9270 N.ar  101  HIS101     -0.2212
    139  N         24.3230   11.9580  -36.9580 N.3   104  GLN104     -0.1245
    140  CA        25.6370   11.4020  -36.6580 C.3   104  GLN104      0.1566
    141  C         25.5450    9.9050  -36.3670 C.2   104  GLN104      0.2260
    142  O         26.2600    9.1000  -36.9590 O.2   104  GLN104     -0.2867
    143  CB        26.2850   12.1030  -35.4660 C.3   104  GLN104      0.0367
    144  CG        26.3830   13.6150  -35.5490 C.3   104  GLN104      0.0905
    145  CD        27.4050   14.1220  -36.5430 C.2   104  GLN104      0.2608
    146  OE1       28.5940   13.8070  -36.4650 O.2   104  GLN104     -0.2717
    147  NE2       26.9460   14.9320  -37.4920 N.am  104  GLN104     -0.0878
    148  N         27.6210    7.6260  -39.2970 N.3   108  ARG108     -0.1245
    149  CA        28.9570    7.1450  -38.9670 C.3   108  ARG108      0.1563
    150  C         28.9290    5.6550  -38.6540 C.2   108  ARG108      0.2260
    151  O         28.2660    5.2010  -37.7140 O.2   108  ARG108     -0.2867
    152  CB        29.5220    7.9510  -37.7900 C.3   108  ARG108      0.0307
    153  CG        29.4800    9.4420  -38.1310 C.3   108  ARG108      0.0489
    154  CD        29.7970   10.3160  -36.9450 C.3   108  ARG108      0.2205
    155  NE        31.0060    9.9250  -36.2230 N.pl3 108  ARG108     -0.0865
    156  CZ        31.3640   10.4470  -35.0560 C.cat 108  ARG108      0.5346
    157  NH1       30.6140   11.3760  -34.4690 N.pl3 108  ARG108      0.1354
    158  NH2       32.4780   10.0360  -34.4670 N.pl3 108  ARG108      0.1354
    159  N         21.5660   16.1940  -20.4760 N.3   129  THR129     -0.1203
    160  CA        22.8180   16.2910  -21.2120 C.3   129  THR129      0.1994
    161  C         22.9600   17.6770  -21.8380 C.2   129  THR129      0.2618
    162  O         24.0750   18.2040  -21.9160 O.2   129  THR129     -0.2717
    163  CB        22.8660   15.1850  -22.2860 C.3   129  THR129      0.1784
    164  OG1       22.6690   13.9130  -21.6400 O.3   129  THR129     -0.2211
    165  CG2       24.2190   15.1730  -22.9810 C.3   129  THR129      0.0376
    166  N         21.8750   18.3150  -22.2780 N.am  130  CYS130     -0.1969
    167  CA        21.9560   19.6870  -22.7980 C.3   130  CYS130      0.1712
    168  C         21.4850   20.7080  -21.7640 C.2   130  CYS130      0.2296
    169  O         22.0790   21.7720  -21.5840 O.2   130  CYS130     -0.2864
    170  CB        21.1350   19.8270  -24.0740 C.3   130  CYS130      0.0983
    171  SG        21.6520   18.7820  -25.4550 S.3   130  CYS130     -0.0798
    172  N         21.7760   21.8100  -18.7240 N.3   132  ASN132     -0.1240
    173  CA        22.9320   21.4450  -17.9250 C.3   132  ASN132      0.1653
    174  C         23.6120   22.5510  -17.1390 C.2   132  ASN132      0.2266
    175  O         24.7730   22.3520  -16.7410 O.2   132  ASN132     -0.2867
    176  CB        23.9890   20.8120  -18.8670 C.3   132  ASN132      0.1155
    177  CG        24.5770   21.7170  -19.9260 C.2   132  ASN132      0.2627
    178  OD1       24.2620   22.8850  -20.1680 O.2   132  ASN132     -0.2716
    179  ND2       25.5420   21.1900  -20.6960 N.am  132  ASN132     -0.0877
    180  N         31.9000   20.2170  -15.8160 N.3   166  GLN166     -0.1245
    181  CA        31.3870   18.9980  -16.4360 C.3   166  GLN166      0.1566
    182  C         32.3080   17.8020  -16.2490 C.2   166  GLN166      0.2260
    183  O         33.5280   17.9060  -16.1560 O.2   166  GLN166     -0.2867
    184  CB        31.1560   19.2250  -17.9350 C.3   166  GLN166      0.0367
    185  CG        29.9530   20.1080  -18.2340 C.3   166  GLN166      0.0905
    186  CD        29.9380   20.6080  -19.6660 C.2   166  GLN166      0.2608
    187  OE1       30.8540   20.3060  -20.4320 O.2   166  GLN166     -0.2717
    188  NE2       28.9090   21.3690  -20.0330 N.am  166  GLN166     -0.0878
    189  N         35.1180    9.9960  -28.7460 N.3   211  ASP211     -0.1225
    190  CA        34.0200   10.7730  -29.2930 C.3   211  ASP211      0.1805
    191  C         33.2320   11.5610  -28.2370 C.2   211  ASP211      0.2598
    192  O         32.6690   10.9660  -27.3160 O.2   211  ASP211     -0.2718
    193  CB        33.1150    9.8940  -30.1450 C.3   211  ASP211      0.1424
    194  CG        32.0850   10.7020  -30.9040 C.2   211  ASP211      0.3668
    195  OD1       31.1120   11.1630  -30.2720 O.co2 211  ASP211     -0.2456
    196  OD2       32.2450   10.8810  -32.1260 O.co2 211  ASP211     -0.2456
    197  N         33.2440   12.8840  -28.3600 N.am  212  LYS212     -0.1966
    198  CA        32.6810   13.7450  -27.3250 C.3   212  LYS212      0.1728
    199  C         31.1520   13.6980  -27.3120 C.2   212  LYS212      0.2616
    200  O         30.5240   13.9090  -26.2730 O.2   212  LYS212     -0.2715
    201  CB        33.1210   15.1920  -27.5170 C.3   212  LYS212      0.0311
    202  CG        34.5050   15.5660  -27.0210 C.3   212  LYS212      0.0038
    203  CD        34.9470   16.9020  -27.6290 C.3   212  LYS212      0.0206
    204  CE        36.2970   17.3320  -27.0740 C.3   212  LYS212      0.1093
    205  NZ        37.4250   16.6630  -27.7900 N.3   212  LYS212     -0.1314
    206  N         30.5660   13.4280  -28.4720 N.am  213  LEU213     -0.1977
    207  CA        29.1030   13.3450  -28.5220 C.3   213  LEU213      0.1596
    208  C         28.6370   12.0710  -27.8220 C.2   213  LEU213      0.2287
    209  O         27.7640   12.1300  -26.9540 O.2   213  LEU213     -0.2864
    210  CB        28.6190   13.4180  -29.9620 C.3   213  LEU213      0.0297
    211  CG        27.1020   13.3600  -30.1610 C.3   213  LEU213      0.0022
    212  CD1       26.4010   14.3940  -29.2920 C.3   213  LEU213      0.0001
    213  CD2       26.7690   13.5480  -31.6240 C.3   213  LEU213      0.0001
    214  N         29.0510   12.2630  -23.9970 N.3   216  ALA216     -0.1231
    215  CA        28.0960   13.0440  -23.2130 C.3   216  ALA216      0.1694
    216  C         26.7960   12.2710  -23.0370 C.2   216  ALA216      0.2592
    217  O         26.2450   12.2860  -21.9420 O.2   216  ALA216     -0.2718
    218  CB        27.8040   14.3810  -23.8770 C.3   216  ALA216      0.0304
    219  N         26.3300   11.6280  -24.1000 N.am  217  PHE217     -0.1976
    220  CA        25.0290   10.9650  -24.0940 C.3   217  PHE217      0.1639
    221  C         25.0820    9.5320  -23.5840 C.2   217  PHE217      0.2290
    222  O         24.0340    9.0230  -23.1570 O.2   217  PHE217     -0.2864
    223  CB        24.3940   11.0050  -25.4910 C.3   217  PHE217      0.0560
    224  CG        23.8090   12.3880  -25.7790 C.ar  217  PHE217     -0.0200
    225  CD1       22.5120   12.6960  -25.4190 C.ar  217  PHE217     -0.0042
    226  CD2       24.5700   13.3660  -26.4110 C.ar  217  PHE217     -0.0042
    227  CE1       21.9720   13.9450  -25.6780 C.ar  217  PHE217     -0.0003
    228  CE2       24.0390   14.6200  -26.6550 C.ar  217  PHE217     -0.0003
    229  CZ        22.7410   14.9200  -26.2850 C.ar  217  PHE217     -0.0000
@<TRIPOS>BOND
     1    82    81    1
     2    77    78    1
     3    78    81    1
     4    78    79    1
     5    81    83    1
     6    79    80    2
     7    79    84   am
     8   109   108    1
     9   104   105    1
    10    84    85    1
    11   148   149    1
    12    71    72    2
    13    71    70    1
    14    75    73    1
    15   149   150    1
    16   149   152    1
    17   108   105    1
    18   108   110    1
    19   150   151    2
    20   105   106    1
    21    86    87    2
    22    86    85    1
    23    70    73    1
    24    70    69    1
    25    63    62    2
    26    85    88    1
    27   153   152    1
    28   153   154    1
    29    73    74    1
    30   147   145   am
    31    76    74    1
    32    62    69   am
    33    62    61    1
    34   106   107    2
    35   106   111   am
    36    88    89    1
    37   142   141    2
    38   139   140    1
    39   154   155    1
    40   128   127    1
    41   140   141    1
    42   140   143    1
    43   145   146    2
    44   145   144    1
    45   111   112    1
    46   124   127    1
    47   124   123    1
    48   124   125    1
    49   155   156    2
    50    61    60    1
    51    61    64    1
    52   126   125    2
    53   144   143    1
    54    66    67    1
    55    66    65    1
    56   125   129   am
    57    64    65    1
    58   156   157    1
    59   156   158    1
    60   112   115    1
    61   112   113    1
    62    67    68    1
    63    53    52    2
    64   114   113    2
    65   116   115    1
    66   129   130    1
    67   113   117   am
    68   132   131    2
    69   131   130    1
    70    52    51    1
    71   130   133    1
    72    93    92    2
    73    91    94    1
    74    91    90    1
    75    91    92    1
    76    95    94    1
    77   117   118    1
    78    51    54    1
    79    51    50    1
    80   120   119    2
    81    45    44    2
    82    54    55    1
    83   196   194   ar
    84   119   118    1
    85   118   121    1
    86   133   134    1
    87   136   134   ar
    88   136   138   ar
    89    57    55   ar
    90    57    59   ar
    91   103   102    1
    92    96    97    1
    93   213   211    1
    94    55    56   ar
    95    50    44   am
    96   134   135   ar
    97    44    43    1
    98    33    32   ar
    99    33    31   ar
   100    98    97    1
   101    98    99    2
   102    97   100    1
   103   138   137   ar
   104   194   195   ar
   105   194   193    1
   106    59    58   ar
   107   121   122    1
   108    32    30   ar
   109    31    29   ar
   110   211   210    1
   111   211   212    1
   112   193   190    1
   113   102   101    1
   114    56    58   ar
   115    43    42    1
   116    43    46    1
   117   135   137   ar
   118   210   207    1
   119   100   101    1
   120   190   189    1
   121   190   191    1
   122    30    28   ar
   123    46    47    1
   124    46    48    1
   125    29    28   ar
   126    49    47    1
   127    37    36    2
   128     8     7    1
   129   207   206    1
   130   207   208    1
   131   206   199   am
   132    28    27    1
   133   197   191   am
   134   197   198    1
   135   191   192    2
   136    36    35    1
   137   208   209    2
   138   205   204    1
   139   203   204    1
   140   203   202    1
   141   201   198    1
   142   201   202    1
   143     7     6    1
   144   198   199    1
   145   199   200    2
   146    27    24    1
   147    40    39    2
   148   228   226   ar
   149   228   229   ar
   150    35    34    1
   151    35    38    1
   152   226   224   ar
   153    34    25   am
   154   229   227   ar
   155     6     5    1
   156    38    39    1
   157    25    24    1
   158    25    26    2
   159    39    41   am
   160    24    23    1
   161   224   223    1
   162   224   225   ar
   163   227   225   ar
   164   223   220    1
   165   171   170    1
   166     5     2    1
   167    23    18   am
   168    14    13    1
   169     2     1    1
   170     2     3    1
   171   219   220    1
   172   219   216   am
   173   220   221    1
   174   170   167    1
   175   214   215    1
   176   218   215    1
   177   221   222    2
   178    18    19    2
   179    18    17    1
   180    13    15    1
   181    13    10    1
   182   215   216    1
   183     3     4    2
   184   216   217    2
   185   165   163    1
   186    12    11    2
   187   167   166    1
   188   167   168    1
   189    11    10    1
   190    11    16   am
   191   163   164    1
   192   163   160    1
   193   166   161   am
   194    17    16    1
   195    17    20    1
   196    10     9    1
   197   162   161    2
   198   161   160    1
   199   168   169    2
   200    21    20    1
   201   160   159    1
   202    20    22    1
   203   179   177   am
   204   187   186    2
   205   178   177    2
   206   188   186   am
   207   177   176    1
   208   186   185    1
   209   176   173    1
   210   172   173    1
   211   185   184    1
   212   184   181    1
   213   173   174    1
   214   174   175    2
   215   181   182    1
   216   181   180    1
   217   182   183    2
