@<TRIPOS>MOLECULE
tmp/1ofyB05.pdb
 189 187 0 0 0
SMALL
GASTEIGER

@<TRIPOS>ATOM
      1  N         22.3350   29.5040  -23.4120 N.3    16  MET16      -0.1230
      2  CA        21.1020   29.7670  -24.1400 C.3    16  MET16       0.1702
      3  C         19.9100   29.7300  -23.1850 C.2    16  MET16       0.2592
      4  O         19.7690   28.7930  -22.3910 O.2    16  MET16      -0.2718
      5  CB        20.9390   28.7460  -25.2700 C.3    16  MET16       0.0401
      6  CG        22.1610   28.7050  -26.1730 C.3    16  MET16       0.0596
      7  SD        22.0920   27.4830  -27.4730 S.3    16  MET16      -0.1393
      8  CE        20.9010   28.1770  -28.6130 C.3    16  MET16       0.0692
      9  N         19.0500   30.7390  -23.2410 N.am   17  PHE17      -0.1963
     10  CA        17.9240   30.8520  -22.3200 C.3    17  PHE17       0.1756
     11  C         16.5780   30.7150  -23.0280 C.2    17  PHE17       0.2461
     12  O         16.5070   30.7950  -24.2560 O.2    17  PHE17      -0.2730
     13  CB        17.9800   32.2030  -21.6120 C.3    17  PHE17       0.0574
     14  CG        19.0940   32.3790  -20.6020 C.ar   17  PHE17      -0.0200
     15  CD1       18.9210   32.0150  -19.2890 C.ar   17  PHE17      -0.0042
     16  CD2       20.3110   32.9270  -20.9970 C.ar   17  PHE17      -0.0042
     17  CE1       19.9190   32.1880  -18.3520 C.ar   17  PHE17      -0.0003
     18  CE2       21.3190   33.0880  -20.0720 C.ar   17  PHE17      -0.0003
     19  CZ        21.1330   32.7130  -18.7580 C.ar   17  PHE17      -0.0000
     20  N         15.5000   30.4840  -22.2780 N.am   18  PRO18      -0.2727
     21  CA        14.1550   30.4450  -22.8770 C.3    18  PRO18       0.1402
     22  C         13.6290   31.8600  -23.1300 C.2    18  PRO18       0.2269
     23  O         12.9470   32.4600  -22.3010 O.2    18  PRO18      -0.2865
     24  CB        13.3170   29.7440  -21.8120 C.3    18  PRO18       0.0296
     25  CG        14.0290   29.9400  -20.5190 C.3    18  PRO18       0.0237
     26  CD        15.4740   30.2090  -20.8360 C.3    18  PRO18       0.0939
     27  N          9.9190   29.6350  -14.6490 N.3    28  ALA28      -0.1231
     28  CA         9.2820   28.3730  -15.0160 C.3    28  ALA28       0.1694
     29  C          9.8370   27.9380  -16.3650 C.2    28  ALA28       0.2592
     30  O          9.4930   28.4590  -17.4300 O.2    28  ALA28      -0.2718
     31  CB         7.7680   28.4860  -15.0430 C.3    28  ALA28       0.0304
     32  N         10.7480   26.9620  -16.3080 N.am   29  ALA29      -0.1966
     33  CA        11.4720   26.5810  -17.5110 C.3    29  ALA29       0.1728
     34  C         12.4450   25.4350  -17.2620 C.2    29  ALA29       0.2616
     35  O         12.7810   25.1830  -16.1100 O.2    29  ALA29      -0.2715
     36  CB        12.2820   27.7690  -18.0270 C.3    29  ALA29       0.0334
     37  N         12.8940   24.8080  -18.3410 N.am   30  MET30      -0.1963
     38  CA        14.0350   23.8990  -18.2930 C.3    30  MET30       0.1736
     39  C         15.2770   24.6270  -17.7990 C.2    30  MET30       0.2616
     40  O         15.3890   25.8510  -17.9300 O.2    30  MET30      -0.2715
     41  CB        14.3100   23.3440  -19.6880 C.3    30  MET30       0.0427
     42  CG        13.1380   22.5860  -20.3030 C.3    30  MET30       0.0599
     43  SD        12.9020   21.0050  -19.4410 S.3    30  MET30      -0.1393
     44  CE        14.3370   20.1170  -20.0670 C.3    30  MET30       0.0692
     45  N         16.2490   23.9210  -17.2300 N.am   31  LYS31      -0.1964
     46  CA        17.5510   24.5620  -17.0460 C.3    31  LYS31       0.1713
     47  C         18.0400   25.0930  -18.3900 C.2    31  LYS31       0.2458
     48  O         17.8150   24.4650  -19.4310 O.2    31  LYS31      -0.2730
     49  CB        18.5610   23.5700  -16.4880 C.3    31  LYS31       0.0311
     50  CG        18.3510   23.1960  -15.0310 C.3    31  LYS31       0.0038
     51  CD        19.2640   22.0460  -14.6500 C.3    31  LYS31       0.0206
     52  CE        18.9520   21.5010  -13.2680 C.3    31  LYS31       0.1093
     53  NZ        19.6240   22.2800  -12.1880 N.3    31  LYS31      -0.1314
     54  N         18.7000   26.2440  -18.3700 N.am   32  PRO32      -0.2716
     55  CA        19.3110   26.7870  -19.5790 C.3    32  PRO32       0.1536
     56  C         20.3510   25.8150  -20.1300 C.2    32  PRO32       0.2598
     57  O         20.8740   24.9590  -19.4150 O.2    32  PRO32      -0.2715
     58  CB        20.0120   28.0530  -19.1090 C.3    32  PRO32       0.0310
     59  CG        19.4200   28.3750  -17.7910 C.3    32  PRO32       0.0237
     60  CD        18.9160   27.0950  -17.1930 C.3    32  PRO32       0.0939
     61  N         20.6460   25.9630  -21.4110 N.am   33  VAL33      -0.1978
     62  CA        21.6120   25.0910  -22.0650 C.3    33  VAL33       0.1596
     63  C         22.9230   25.8250  -22.3260 C.2    33  VAL33       0.2287
     64  O         22.9380   26.9080  -22.9150 O.2    33  VAL33      -0.2864
     65  CB        21.0400   24.5610  -23.3900 C.3    33  VAL33       0.0276
     66  CG1       22.1000   23.8580  -24.2230 C.3    33  VAL33       0.0022
     67  CG2       19.8650   23.6250  -23.0930 C.3    33  VAL33       0.0022
     68  N         10.1030   31.3360  -27.7220 N.3    65  VAL65      -0.1245
     69  CA         9.3250   30.2530  -27.1210 C.3    65  VAL65       0.1561
     70  C          7.9360   30.1280  -27.7350 C.2    65  VAL65       0.2260
     71  O          7.4500   29.0410  -28.0350 O.2    65  VAL65      -0.2867
     72  CB         9.1700   30.4930  -25.6070 C.3    65  VAL65       0.0252
     73  CG1        8.0610   29.6240  -25.0300 C.3    65  VAL65       0.0019
     74  CG2       10.4930   30.2380  -24.9000 C.3    65  VAL65       0.0019
     75  N         11.1680   28.1150  -30.4570 N.3    76  LEU76      -0.1231
     76  CA        12.4430   27.7230  -29.8660 C.3    76  LEU76       0.1693
     77  C         12.4960   26.2110  -29.6700 C.2    76  LEU76       0.2592
     78  O         13.4840   25.5650  -30.0060 O.2    76  LEU76      -0.2718
     79  CB        12.6240   28.4680  -28.5460 C.3    76  LEU76       0.0284
     80  CG        13.9560   28.3200  -27.8100 C.3    76  LEU76       0.0019
     81  CD1       15.0920   28.8750  -28.6580 C.3    76  LEU76       0.0001
     82  CD2       13.9480   29.0080  -26.4540 C.3    76  LEU76       0.0001
     83  N         11.4090   25.6590  -29.1210 N.am   77  ASP77      -0.1974
     84  CA        11.2620   24.2220  -28.8960 C.3    77  ASP77       0.1709
     85  C         11.4780   23.4320  -30.1840 C.2    77  ASP77       0.2293
     86  O         12.2670   22.4860  -30.2290 O.2    77  ASP77      -0.2864
     87  CB         9.8850   23.8980  -28.2930 C.3    77  ASP77       0.1436
     88  CG         9.5070   22.4350  -28.4110 C.2    77  ASP77       0.3671
     89  OD1       10.3930   21.5750  -28.2160 O.co2  77  ASP77      -0.2456
     90  OD2        8.3410   22.1120  -28.7110 O.co2  77  ASP77      -0.2456
     91  N         15.1620   23.8000  -31.6450 N.3    80  MET80      -0.1230
     92  CA        16.2370   23.1130  -30.9470 C.3    80  MET80       0.1702
     93  C         16.0890   21.6010  -30.9920 C.2    80  MET80       0.2592
     94  O         17.1120   20.9090  -30.9290 O.2    80  MET80      -0.2718
     95  CB        16.3120   23.5720  -29.4810 C.3    80  MET80       0.0401
     96  CG        16.4760   25.0780  -29.3340 C.3    80  MET80       0.0596
     97  SD        17.9960   25.6810  -30.1070 S.3    80  MET80      -0.1393
     98  CE        17.3960   26.3490  -31.6470 C.3    80  MET80       0.0692
     99  N         14.8510   21.1100  -31.0760 N.am   81  HIS81      -0.1976
    100  CA        14.6260   19.6840  -30.9110 C.3    81  HIS81       0.1656
    101  C         14.0430   19.0140  -32.1510 C.2    81  HIS81       0.2291
    102  O         13.9060   17.7890  -32.1050 O.2    81  HIS81      -0.2864
    103  CB        13.6850   19.3870  -29.7390 C.3    81  HIS81       0.0771
    104  CG        13.9880   20.0270  -28.4250 C.ar   81  HIS81       0.0820
    105  ND1       13.2330   21.0950  -27.9700 N.ar   81  HIS81      -0.2267
    106  CD2       14.8980   19.7890  -27.4610 C.ar   81  HIS81       0.1154
    107  CE1       13.6960   21.4640  -26.7870 C.ar   81  HIS81       0.1986
    108  NE2       14.7230   20.7010  -26.4260 N.ar   81  HIS81      -0.2212
    109  N         19.5650   20.8770  -32.8650 N.3    97  CYS97      -0.1221
    110  CA        20.5050   20.1660  -32.0000 C.3    97  CYS97       0.1808
    111  C         20.2500   18.6570  -32.0800 C.2    97  CYS97       0.2601
    112  O         21.1510   17.8570  -32.3180 O.2    97  CYS97      -0.2717
    113  CB        20.4280   20.5870  -30.5420 C.3    97  CYS97       0.0970
    114  SG        20.2760   22.3410  -30.1930 S.3    97  CYS97      -0.0800
    115  N         18.9850   18.2810  -31.8790 N.am   98  VAL98      -0.1979
    116  CA        18.6590   16.8540  -31.8740 C.3    98  VAL98       0.1595
    117  C         18.8420   16.2450  -33.2520 C.2    98  VAL98       0.2287
    118  O         19.4080   15.1530  -33.3650 O.2    98  VAL98      -0.2864
    119  CB        17.2330   16.6410  -31.3260 C.3    98  VAL98       0.0276
    120  CG1       16.7460   15.2160  -31.5040 C.3    98  VAL98       0.0022
    121  CG2       17.2310   17.0120  -29.8420 C.3    98  VAL98       0.0022
    122  N         22.5760   15.5360  -34.1490 N.3   101  HIS101     -0.1241
    123  CA        23.0760   14.4340  -33.3320 C.3   101  HIS101      0.1621
    124  C         22.5120   13.1150  -33.8410 C.2   101  HIS101      0.2264
    125  O         23.2460   12.1270  -33.9790 O.2   101  HIS101     -0.2867
    126  CB        22.7370   14.6750  -31.8610 C.3   101  HIS101      0.0745
    127  CG        23.4880   15.8410  -31.2930 C.ar  101  HIS101      0.0817
    128  ND1       23.2980   16.3230  -30.0250 N.ar  101  HIS101     -0.2268
    129  CD2       24.4450   16.6200  -31.8570 C.ar  101  HIS101      0.1154
    130  CE1       24.1070   17.3560  -29.8280 C.ar  101  HIS101      0.1986
    131  NE2       24.8210   17.5530  -30.9270 N.ar  101  HIS101     -0.2212
    132  N         15.0520    8.8630  -24.1700 N.3   122  ARG122     -0.1245
    133  CA        14.6730   10.2770  -24.1310 C.3   122  ARG122      0.1563
    134  C         14.0160   10.6580  -22.8100 C.2   122  ARG122      0.2260
    135  O         12.9820   11.3130  -22.7390 O.2   122  ARG122     -0.2867
    136  CB        13.7560   10.6340  -25.3090 C.3   122  ARG122      0.0307
    137  CG        14.5450   10.8440  -26.5950 C.3   122  ARG122      0.0489
    138  CD        13.6700   10.8720  -27.8310 C.3   122  ARG122      0.2205
    139  NE        14.2720   10.1020  -28.9200 N.pl3 122  ARG122     -0.0865
    140  CZ        15.3490   10.4440  -29.6130 C.cat 122  ARG122      0.5346
    141  NH1       15.7910    9.6480  -30.5800 N.pl3 122  ARG122      0.1354
    142  NH2       15.9940   11.5730  -29.3560 N.pl3 122  ARG122      0.1354
    143  N         18.7650   12.1560  -20.5930 N.3   126  TRP126     -0.1227
    144  CA        18.9010   12.6220  -21.9650 C.3   126  TRP126      0.1737
    145  C         18.6990   14.1420  -21.9820 C.2   126  TRP126      0.2595
    146  O         19.5610   14.8740  -22.4840 O.2   126  TRP126     -0.2718
    147  CB        17.9210   11.8990  -22.8710 C.3   126  TRP126      0.0564
    148  CG        18.0860   12.2020  -24.3250 C.ar  126  TRP126      0.0003
    149  CD1       19.0990   11.7790  -25.1480 C.ar  126  TRP126      0.0946
    150  CD2       17.2210   12.9970  -25.1410 C.ar  126  TRP126      0.0152
    151  NE1       18.9180   12.2560  -26.4170 N.ar  126  TRP126     -0.2442
    152  CE2       17.7650   13.0110  -26.4390 C.ar  126  TRP126      0.0810
    153  CE3       16.0350   13.7000  -24.8930 C.ar  126  TRP126      0.0012
    154  CZ2       17.1700   13.6980  -27.5010 C.ar  126  TRP126      0.0191
    155  CZ3       15.4520   14.3760  -25.9500 C.ar  126  TRP126      0.0001
    156  CH2       16.0090   14.3790  -27.2350 C.ar  126  TRP126      0.0015
    157  N         17.5850   14.6130  -21.4110 N.am  127  CYS127     -0.1970
    158  CA        17.3390   16.0520  -21.3870 C.3   127  CYS127      0.1712
    159  C         18.5140   16.7950  -20.7460 C.2   127  CYS127      0.2296
    160  O         18.9610   17.8020  -21.3020 O.2   127  CYS127     -0.2864
    161  CB        16.0660   16.4480  -20.6380 C.3   127  CYS127      0.0983
    162  SG        14.5780   15.5450  -21.0850 S.3   127  CYS127     -0.0798
    163  N         21.8750   18.3150  -22.2780 N.3   130  CYS130     -0.1221
    164  CA        21.9560   19.6870  -22.7980 C.3   130  CYS130      0.1808
    165  C         21.4850   20.7080  -21.7640 C.2   130  CYS130      0.2601
    166  O         22.0790   21.7720  -21.5840 O.2   130  CYS130     -0.2717
    167  CB        21.1350   19.8270  -24.0740 C.3   130  CYS130      0.0970
    168  SG        21.6520   18.7820  -25.4550 S.3   130  CYS130     -0.0800
    169  N         20.3890   20.3870  -21.0770 N.am  131  HIS131     -0.1975
    170  CA        19.8310   21.2760  -20.0460 C.3   131  HIS131      0.1656
    171  C         20.6570   21.0850  -18.7860 C.2   131  HIS131      0.2291
    172  O         20.3060   20.2820  -17.9200 O.2   131  HIS131     -0.2864
    173  CB        18.3330   21.0020  -19.8650 C.3   131  HIS131      0.0771
    174  CG        17.5360   21.2670  -21.1140 C.ar  131  HIS131      0.0820
    175  ND1       17.0730   22.5260  -21.4420 N.ar  131  HIS131     -0.2267
    176  CD2       17.1220   20.4660  -22.1210 C.ar  131  HIS131      0.1154
    177  CE1       16.4060   22.4660  -22.5930 C.ar  131  HIS131      0.1986
    178  NE2       16.4130   21.2130  -23.0400 N.ar  131  HIS131     -0.2212
    179  N         26.3300   11.6280  -24.1000 N.3   217  PHE217     -0.1241
    180  CA        25.0290   10.9650  -24.0940 C.3   217  PHE217      0.1605
    181  C         25.0820    9.5320  -23.5840 C.2   217  PHE217      0.2264
    182  O         24.0340    9.0230  -23.1570 O.2   217  PHE217     -0.2867
    183  CB        24.3940   11.0050  -25.4910 C.3   217  PHE217      0.0534
    184  CG        23.8090   12.3880  -25.7790 C.ar  217  PHE217     -0.0203
    185  CD1       22.5120   12.6960  -25.4190 C.ar  217  PHE217     -0.0042
    186  CD2       24.5700   13.3660  -26.4110 C.ar  217  PHE217     -0.0042
    187  CE1       21.9720   13.9450  -25.6780 C.ar  217  PHE217     -0.0003
    188  CE2       24.0390   14.6200  -26.6550 C.ar  217  PHE217     -0.0003
    189  CZ        22.7410   14.9200  -26.2850 C.ar  217  PHE217     -0.0000
@<TRIPOS>BOND
     1   122   123    1
     2   125   124    2
     3   124   123    1
     4   118   117    2
     5   123   126    1
     6   117   116    1
     7   109   110    1
     8   112   111    2
     9   101   102    2
    10   101   100    1
    11   111   110    1
    12   111   115   am
    13   110   113    1
    14   115   116    1
    15   116   119    1
    16   126   127    1
    17   129   127   ar
    18   129   131   ar
    19    98    97    1
    20    91    92    1
    21   120   119    1
    22   119   121    1
    23   127   128   ar
    24    99    93   am
    25    99   100    1
    26    93    92    1
    27    93    94    2
    28    92    95    1
    29   131   130   ar
    30   100   103    1
    31   141   140    1
    32   113   114    1
    33    75    76    1
    34    86    85    2
    35    85    84    1
    36    97    96    1
    37   128   130   ar
    38    78    77    2
    39    76    77    1
    40    76    79    1
    41   103   104    1
    42    77    83   am
    43   140   142    1
    44   140   139    2
    45    95    96    1
    46    83    84    1
    47   139   138    1
    48    84    87    1
    49    90    88   ar
    50    81    80    1
    51     8     7    1
    52    79    80    1
    53   104   105   ar
    54   104   106   ar
    55    88    87    1
    56    88    89   ar
    57    71    70    2
    58   105   107   ar
    59   138   137    1
    60    80    82    1
    61    70    69    1
    62    68    69    1
    63   154   156   ar
    64   154   152   ar
    65     7     6    1
    66   106   108   ar
    67   156   155   ar
    68    69    72    1
    69   107   108   ar
    70   188   186   ar
    71   188   189   ar
    72   137   136    1
    73   152   151   ar
    74   152   150   ar
    75   151   149   ar
    76   186   184   ar
    77   189   187   ar
    78     6     5    1
    79   155   153   ar
    80   184   183    1
    81   184   185   ar
    82   187   185   ar
    83    72    73    1
    84    72    74    1
    85   183   180    1
    86   168   167    1
    87   136   133    1
    88     5     2    1
    89   149   148   ar
    90   150   153   ar
    91   150   148   ar
    92   148   147    1
    93    12    11    2
    94    66    65    1
    95   132   133    1
    96     2     1    1
    97     2     3    1
    98   133   134    1
    99   179   180    1
   100   180   181    1
   101   167   164    1
   102   181   182    2
   103    65    67    1
   104    65    62    1
   105     9     3   am
   106     9    10    1
   107     3     4    2
   108    22    21    1
   109    22    23    2
   110   178   177   ar
   111   178   176   ar
   112    11    10    1
   113    11    20   am
   114    64    63    2
   115    21    20    1
   116    21    24    1
   117   147   144    1
   118   134   135    2
   119   164   163    1
   120   164   165    1
   121   177   175   ar
   122   146   145    2
   123    63    62    1
   124    10    13    1
   125    20    26    1
   126   176   174   ar
   127    62    61    1
   128   145   144    1
   129   145   157   am
   130   144   143    1
   131    24    25    1
   132   165   166    2
   133   165   169   am
   134    13    14    1
   135   175   174   ar
   136   157   158    1
   137    61    56   am
   138   158   159    1
   139   158   161    1
   140   160   159    2
   141   174   173    1
   142   162   161    1
   143   169   170    1
   144    16    14   ar
   145    16    18   ar
   146    26    25    1
   147    14    15   ar
   148    42    41    1
   149    42    43    1
   150    56    55    1
   151    56    57    2
   152    18    19   ar
   153    44    43    1
   154   170   173    1
   155   170   171    1
   156    41    38    1
   157    55    58    1
   158    55    54    1
   159    48    47    2
   160    15    17   ar
   161    58    59    1
   162   171   172    2
   163    19    17   ar
   164    47    54   am
   165    47    46    1
   166    54    60    1
   167    37    38    1
   168    37    34   am
   169    38    39    1
   170    36    33    1
   171    40    39    2
   172    39    45   am
   173    59    60    1
   174    33    34    1
   175    33    32    1
   176    30    29    2
   177    34    35    2
   178    45    46    1
   179    46    49    1
   180    49    50    1
   181    29    32   am
   182    29    28    1
   183    31    28    1
   184    50    51    1
   185    28    27    1
   186    51    52    1
   187    52    53    1
