@<TRIPOS>MOLECULE
tmp/1ofyB07.pdb
 158 156 0 0 0
SMALL
GASTEIGER

@<TRIPOS>ATOM
      1  N         19.9480   -0.5880  -33.6000 N.3   117  ILE117     -0.1245
      2  CA        19.0750   -1.4630  -32.8170 C.3   117  ILE117      0.1561
      3  C         18.7030   -0.8570  -31.4740 C.2   117  ILE117      0.2260
      4  O         17.9020   -1.4360  -30.7180 O.2   117  ILE117     -0.2867
      5  CB        19.7590   -2.8330  -32.6250 C.3   117  ILE117      0.0252
      6  CG1       21.0900   -2.7810  -31.8790 C.3   117  ILE117      0.0019
      7  CG2       19.9470   -3.5150  -33.9770 C.3   117  ILE117      0.0019
      8  CD1       21.5040   -4.0610  -31.1880 C.3   117  ILE117      0.0001
      9  N         16.6710    1.6390  -29.0390 N.3   119  THR119     -0.1218
     10  CA        15.6260    2.6740  -29.0960 C.3   119  THR119      0.1862
     11  C         15.9000    3.6400  -27.9470 C.2   119  THR119      0.2287
     12  O         15.8900    3.2410  -26.7850 O.2   119  THR119     -0.2866
     13  CB        14.2120    2.0990  -29.0410 C.3   119  THR119      0.1770
     14  OG1       13.9450    1.3500  -30.2430 O.3   119  THR119     -0.2211
     15  CG2       13.1810    3.2190  -29.0010 C.3   119  THR119      0.0375
     16  N         21.7270   -4.0340  -26.1760 N.3   228  CYS228     -0.1221
     17  CA        21.1580   -5.3480  -26.4490 C.3   228  CYS228      0.1808
     18  C         20.1860   -5.7230  -25.3270 C.2   228  CYS228      0.2601
     19  O         19.0670   -6.1350  -25.6630 O.2   228  CYS228     -0.2717
     20  CB        22.2980   -6.3580  -26.6140 C.3   228  CYS228      0.0970
     21  SG        23.4590   -5.8750  -27.9270 S.3   228  CYS228     -0.0800
     22  N         20.6150   -5.5580  -24.0790 N.am  229  HIS229     -0.1961
     23  CA        19.7960   -5.7920  -22.8910 C.3   229  HIS229      0.1787
     24  C         18.8670   -4.6090  -22.6510 C.2   229  HIS229      0.2620
     25  O         19.0200   -3.8290  -21.7140 O.2   229  HIS229     -0.2715
     26  CB        20.6480   -6.0080  -21.6360 C.3   229  HIS229      0.0785
     27  CG        21.7070   -7.0510  -21.8400 C.ar  229  HIS229      0.0821
     28  ND1       21.3960   -8.3910  -21.9140 N.ar  229  HIS229     -0.2267
     29  CD2       23.0490   -6.9540  -21.9980 C.ar  229  HIS229      0.1154
     30  CE1       22.5010   -9.0920  -22.1050 C.ar  229  HIS229      0.1986
     31  NE2       23.5070   -8.2400  -22.1580 N.ar  229  HIS229     -0.2212
     32  N         17.8850   -4.4510  -23.5280 N.am  230  HIS230     -0.1959
     33  CA        17.0860   -3.2310  -23.4390 C.3   230  HIS230      0.1787
     34  C         15.8900   -3.3610  -22.5030 C.2   230  HIS230      0.2620
     35  O         15.5520   -4.4710  -22.0730 O.2   230  HIS230     -0.2715
     36  CB        16.6280   -2.8740  -24.8550 C.3   230  HIS230      0.0785
     37  CG        15.9480   -3.9800  -25.5970 C.ar  230  HIS230      0.0821
     38  ND1       16.1320   -4.1250  -26.9540 N.ar  230  HIS230     -0.2267
     39  CD2       15.1000   -4.9780  -25.2520 C.ar  230  HIS230      0.1154
     40  CE1       15.4370   -5.1520  -27.4000 C.ar  230  HIS230      0.1986
     41  NE2       14.7980   -5.6950  -26.3740 N.ar  230  HIS230     -0.2212
     42  N         15.2560   -2.2220  -22.2510 N.am  231  ARG231     -0.1963
     43  CA        13.9690   -2.1350  -21.5730 C.3   231  ARG231      0.1729
     44  C         13.9530   -2.7760  -20.1970 C.2   231  ARG231      0.2616
     45  O         12.9200   -3.2720  -19.7450 O.2   231  ARG231     -0.2715
     46  CB        12.8960   -2.7550  -22.4930 C.3   231  ARG231      0.0348
     47  CG        12.8470   -2.0750  -23.8580 C.3   231  ARG231      0.0492
     48  CD        11.7690   -2.6410  -24.7700 C.3   231  ARG231      0.2205
     49  NE        11.5770   -1.8620  -25.9950 N.pl3 231  ARG231     -0.0865
     50  CZ        12.0870   -2.1050  -27.1940 C.cat 231  ARG231      0.5346
     51  NH1       12.8760   -3.1530  -27.4380 N.pl3 231  ARG231      0.1354
     52  NH2       11.8300   -1.3060  -28.2240 N.pl3 231  ARG231      0.1354
     53  N         15.0670   -2.7780  -19.4760 N.am  232  SER232     -0.1950
     54  CA        15.1300   -3.2510  -18.1010 C.3   232  SER232      0.1924
     55  C         16.0860   -2.3490  -17.3210 C.2   232  SER232      0.2314
     56  O         16.9190   -1.7120  -17.9750 O.2   232  SER232     -0.2863
     57  CB        15.5800   -4.7060  -17.9930 C.3   232  SER232      0.2116
     58  OG        16.8190   -4.9040  -18.6480 O.3   232  SER232     -0.2180
     59  N         18.1850   -9.5270  -17.1300 N.3   239  PRO239     -0.2102
     60  CA        17.3520  -10.7110  -17.3850 C.3   239  PRO239      0.1504
     61  C         17.6590  -11.3090  -18.7490 C.2   239  PRO239      0.2576
     62  O         18.2720  -10.6800  -19.6130 O.2   239  PRO239     -0.2718
     63  CB        15.9200  -10.1660  -17.3580 C.3   239  PRO239      0.0282
     64  CG        16.0490   -8.6810  -17.4770 C.3   239  PRO239      0.0208
     65  CD        17.3770   -8.3280  -16.8590 C.3   239  PRO239      0.0893
     66  N         17.2210  -12.5490  -18.9670 N.am  240  LYS240     -0.1966
     67  CA        17.4700  -13.1830  -20.2640 C.3   240  LYS240      0.1728
     68  C         16.4820  -12.6940  -21.3070 C.2   240  LYS240      0.2616
     69  O         15.3630  -12.3140  -20.9640 O.2   240  LYS240     -0.2715
     70  CB        17.3840  -14.6980  -20.1150 C.3   240  LYS240      0.0311
     71  CG        18.3990  -15.3060  -19.1470 C.3   240  LYS240      0.0038
     72  CD        18.0610  -16.7820  -18.9670 C.3   240  LYS240      0.0206
     73  CE        19.1900  -17.5590  -18.3090 C.3   240  LYS240      0.1093
     74  NZ        18.8090  -18.9810  -18.0570 N.3   240  LYS240     -0.1314
     75  N         16.8630  -12.6810  -22.5770 N.am  241  CYS241     -0.1968
     76  CA        15.9590  -12.2890  -23.6380 C.3   241  CYS241      0.1712
     77  C         14.6720  -13.1110  -23.5530 C.2   241  CYS241      0.2296
     78  O         13.5830  -12.5940  -23.8180 O.2   241  CYS241     -0.2864
     79  CB        16.6000  -12.4820  -25.0120 C.3   241  CYS241      0.0983
     80  SG        18.3310  -11.9390  -25.0810 S.3   241  CYS241     -0.0798
     81  N         11.3190  -12.3330  -21.5850 N.3   244  CYS244     -0.1221
     82  CA        10.3780  -11.4260  -22.2200 C.3   244  CYS244      0.1808
     83  C          9.9860  -11.8930  -23.6120 C.2   244  CYS244      0.2601
     84  O          8.8820  -11.5820  -24.0700 O.2   244  CYS244     -0.2717
     85  CB        10.9410   -9.9940  -22.3160 C.3   244  CYS244      0.0970
     86  SG        11.0880   -9.1740  -20.7040 S.3   244  CYS244     -0.0800
     87  N         10.8690  -12.6160  -24.2970 N.am  245  HIS245     -0.1975
     88  CA        10.5290  -13.0500  -25.6550 C.3   245  HIS245      0.1656
     89  C         10.1830  -14.5350  -25.6740 C.2   245  HIS245      0.2291
     90  O         11.0410  -15.3260  -25.2830 O.2   245  HIS245     -0.2864
     91  CB        11.6810  -12.7640  -26.6310 C.3   245  HIS245      0.0771
     92  CG        11.8790  -11.2840  -26.7970 C.ar  245  HIS245      0.0820
     93  ND1       11.2640  -10.5930  -27.8110 N.ar  245  HIS245     -0.2267
     94  CD2       12.5970  -10.3830  -26.0880 C.ar  245  HIS245      0.1154
     95  CE1       11.5960   -9.3080  -27.7270 C.ar  245  HIS245      0.1986
     96  NE2       12.4010   -9.1660  -26.6930 N.ar  245  HIS245     -0.2212
     97  N          3.4530   -7.1450  -31.0350 N.3   255  GLY255     -0.1210
     98  CA         4.5970   -6.3750  -31.5140 C.3   255  GLY255      0.1956
     99  C          5.9210   -7.0190  -31.1620 C.2   255  GLY255      0.2612
    100  O          6.9710   -6.7470  -31.7510 O.2   255  GLY255     -0.2717
    101  N          5.8990   -7.9000  -30.1650 N.am  256  ARG256     -0.1966
    102  CA         7.1160   -8.5350  -29.6960 C.3   256  ARG256      0.1714
    103  C          7.5590   -9.6550  -30.6250 C.2   256  ARG256      0.2458
    104  O          6.7640  -10.5550  -30.8970 O.2   256  ARG256     -0.2730
    105  CB         6.8720   -9.1030  -28.3030 C.3   256  ARG256      0.0347
    106  CG         7.7200   -8.4780  -27.2190 C.3   256  ARG256      0.0492
    107  CD         7.3930   -9.1110  -25.8770 C.3   256  ARG256      0.2205
    108  NE         6.6430   -8.1850  -25.0280 N.pl3 256  ARG256     -0.0865
    109  CZ         6.6380   -8.2310  -23.7040 C.cat 256  ARG256      0.5346
    110  NH1        7.3400   -9.1500  -23.0540 N.pl3 256  ARG256      0.1354
    111  NH2        5.9200   -7.3390  -23.0340 N.pl3 256  ARG256      0.1354
    112  N          8.7880   -9.6180  -31.1070 N.am  257  PRO257     -0.2727
    113  CA         9.2560  -10.7500  -31.9140 C.3   257  PRO257      0.1402
    114  C          9.3720  -11.9520  -30.9880 C.2   257  PRO257      0.2269
    115  O          9.5390  -11.7620  -29.7760 O.2   257  PRO257     -0.2865
    116  CB        10.6300  -10.3380  -32.4140 C.3   257  PRO257      0.0296
    117  CG        10.8750   -8.9530  -31.9470 C.3   257  PRO257      0.0237
    118  CD         9.8060   -8.5790  -30.9600 C.3   257  PRO257      0.0939
    119  N         14.0500  -12.3110  -32.0620 N.3   262  ALA262     -0.1231
    120  CA        14.7220  -11.3120  -31.2400 C.3   262  ALA262      0.1694
    121  C         16.2300  -11.3590  -31.5030 C.2   262  ALA262      0.2592
    122  O         16.8440  -10.3520  -31.8720 O.2   262  ALA262     -0.2718
    123  CB        14.4320  -11.5300  -29.7700 C.3   262  ALA262      0.0304
    124  N         16.7880  -12.5550  -31.3220 N.am  263  TYR263     -0.1976
    125  CA        18.1950  -12.7890  -31.6340 C.3   263  TYR263      0.1639
    126  C         18.5080  -12.3460  -33.0600 C.2   263  TYR263      0.2290
    127  O         19.3740  -11.5030  -33.2900 O.2   263  TYR263     -0.2864
    128  CB        18.5850  -14.2560  -31.4800 C.3   263  TYR263      0.0560
    129  CG        18.5850  -14.8020  -30.0770 C.ar  263  TYR263     -0.0198
    130  CD1       19.3090  -14.2040  -29.0640 C.ar  263  TYR263     -0.0009
    131  CD2       17.8590  -15.9390  -29.7590 C.ar  263  TYR263     -0.0009
    132  CE1       19.3030  -14.7160  -27.7810 C.ar  263  TYR263      0.0417
    133  CE2       17.8450  -16.4610  -28.4740 C.ar  263  TYR263      0.0417
    134  CZ        18.5710  -15.8470  -27.4830 C.ar  263  TYR263      0.1957
    135  OH        18.5750  -16.3410  -26.2010 O.3   263  TYR263     -0.2866
    136  N         16.9840  -10.5070  -35.3200 N.3   265  LEU265     -0.1231
    137  CA        16.8560   -9.0810  -35.6080 C.3   265  LEU265      0.1693
    138  C         17.9630   -8.2950  -34.9130 C.2   265  LEU265      0.2592
    139  O         18.5500   -7.3850  -35.4940 O.2   265  LEU265     -0.2718
    140  CB        15.5000   -8.5450  -35.1580 C.3   265  LEU265      0.0284
    141  CG        14.2860   -8.9560  -35.9860 C.3   265  LEU265      0.0019
    142  CD1       13.0150   -8.4880  -35.2840 C.3   265  LEU265      0.0001
    143  CD2       14.3510   -8.3980  -37.3970 C.3   265  LEU265      0.0001
    144  N         18.2560   -8.6430  -33.6570 N.am  266  GLN266     -0.1966
    145  CA        19.2970   -7.8790  -32.9790 C.3   266  GLN266      0.1733
    146  C         20.6720   -8.0820  -33.6050 C.2   266  GLN266      0.2616
    147  O         21.2970   -7.1040  -34.0300 O.2   266  GLN266     -0.2715
    148  CB        19.3080   -8.2600  -31.5020 C.3   266  GLN266      0.0408
    149  CG        19.9630   -7.2160  -30.6110 C.3   266  GLN266      0.0908
    150  CD        19.5900   -7.3550  -29.1510 C.2   266  GLN266      0.2608
    151  OE1       18.6190   -6.7440  -28.6850 O.2   266  GLN266     -0.2717
    152  NE2       20.3850   -8.1580  -28.4590 N.am  266  GLN266     -0.0878
    153  N         21.1610   -9.3160  -33.6680 N.am  267  CYS267     -0.1968
    154  CA        22.5020   -9.5810  -34.1950 C.3   267  CYS267      0.1712
    155  C         22.6680   -9.0760  -35.6270 C.2   267  CYS267      0.2296
    156  O         23.6350   -8.3830  -35.9600 O.2   267  CYS267     -0.2864
    157  CB        22.8400  -11.0720  -34.1490 C.3   267  CYS267      0.0983
    158  SG        22.4470  -11.9030  -32.6050 S.3   267  CYS267     -0.0798
@<TRIPOS>BOND
     1   143   141    1
     2   141   142    1
     3   141   140    1
     4   156   155    2
     5   155   154    1
     6   137   136    1
     7   137   140    1
     8   137   138    1
     9   139   138    2
    10   138   144   am
    11   154   157    1
    12   154   153    1
    13   157   158    1
    14   147   146    2
    15     7     5    1
    16   153   146   am
    17   144   145    1
    18   146   145    1
    19     1     2    1
    20   127   126    2
    21   126   125    1
    22   145   148    1
    23     2     5    1
    24     2     3    1
    25     5     6    1
    26   116   117    1
    27   116   113    1
    28   119   120    1
    29   117   118    1
    30   113   112    1
    31   113   114    1
    32     6     8    1
    33   122   121    2
    34   100    99    2
    35   125   128    1
    36   125   124    1
    37    98    99    1
    38    98    97    1
    39   121   124   am
    40   121   120    1
    41   148   149    1
    42   128   129    1
    43     3     4    2
    44   120   123    1
    45    99   101   am
    46   112   118    1
    47   112   103   am
    48   114   115    2
    49   104   103    2
    50   103   102    1
    51   149   150    1
    52    14    13    1
    53   101   102    1
    54   129   131   ar
    55   129   130   ar
    56   131   133   ar
    57   102   105    1
    58   150   151    2
    59   150   152   am
    60    10    13    1
    61    10     9    1
    62    10    11    1
    63   130   132   ar
    64    13    15    1
    65   133   134   ar
    66   105   106    1
    67    52    50    1
    68    11    12    2
    69    21    20    1
    70    93    95   ar
    71    93    92   ar
    72   132   134   ar
    73    95    96   ar
    74   134   135    1
    75    51    50    1
    76    40    38   ar
    77    40    41   ar
    78   106   107    1
    79    50    49    2
    80    38    37   ar
    81    92    91    1
    82    92    94   ar
    83    96    94   ar
    84    91    88    1
    85    20    17    1
    86    17    16    1
    87    17    18    1
    88    41    39   ar
    89    49    48    1
    90   107   108    1
    91    89    88    1
    92    89    90    2
    93    19    18    2
    94    88    87    1
    95    37    39   ar
    96    37    36    1
    97    18    22   am
    98    80    79    1
    99   108   109    2
   100    79    76    1
   101    36    33    1
   102    48    47    1
   103    87    83   am
   104    22    23    1
   105    84    83    2
   106    47    46    1
   107    78    77    2
   108   109   110    1
   109   109   111    1
   110    76    77    1
   111    76    75    1
   112    83    82    1
   113    32    33    1
   114    32    24   am
   115    33    34    1
   116    23    24    1
   117    23    26    1
   118    24    25    2
   119    75    68   am
   120    34    42   am
   121    34    35    2
   122    46    43    1
   123    85    82    1
   124    85    86    1
   125    42    43    1
   126    82    81    1
   127    31    30   ar
   128    31    29   ar
   129    30    28   ar
   130    29    27   ar
   131    28    27   ar
   132    27    26    1
   133    43    44    1
   134    68    69    2
   135    68    67    1
   136    67    70    1
   137    67    66    1
   138    44    45    2
   139    44    53   am
   140    70    71    1
   141    62    61    2
   142    53    54    1
   143    71    72    1
   144    72    73    1
   145    66    61   am
   146    61    60    1
   147    58    57    1
   148    73    74    1
   149    54    57    1
   150    54    55    1
   151    56    55    2
   152    64    63    1
   153    64    65    1
   154    60    63    1
   155    60    59    1
   156    59    65    1
