@<TRIPOS>MOLECULE
tmp/1ofyB02.pdb
 212 204 0 0 0
SMALL
GASTEIGER

@<TRIPOS>ATOM
      1  N         24.4890   25.4900  -39.4910 N.3    50  CYS50      -0.1221
      2  CA        23.6670   25.8010  -38.3390 C.3    50  CYS50       0.1808
      3  C         22.9770   27.1480  -38.4890 C.2    50  CYS50       0.2601
      4  O         21.7530   27.1960  -38.3690 O.2    50  CYS50      -0.2717
      5  CB        24.5520   25.8030  -37.0880 C.3    50  CYS50       0.0970
      6  SG        25.3050   24.1720  -36.8470 S.3    50  CYS50      -0.0800
      7  N         23.7780   28.1820  -38.7350 N.am   51  HIS51      -0.1961
      8  CA        23.2280   29.5210  -38.9580 C.3    51  HIS51       0.1787
      9  C         22.6530   29.5740  -40.3770 C.2    51  HIS51       0.2620
     10  O         23.2340   30.1790  -41.2810 O.2    51  HIS51      -0.2715
     11  CB        24.2660   30.6140  -38.7480 C.3    51  HIS51       0.0785
     12  CG        25.0430   30.5280  -37.4720 C.ar   51  HIS51       0.0821
     13  ND1       24.6130   31.0680  -36.2830 N.ar   51  HIS51      -0.2267
     14  CD2       26.2390   29.9600  -37.2130 C.ar   51  HIS51       0.1154
     15  CE1       25.5050   30.8400  -35.3310 C.ar   51  HIS51       0.1986
     16  NE2       26.5010   30.1670  -35.8810 N.ar   51  HIS51      -0.2212
     17  N         21.5070   28.9070  -40.5050 N.am   52  HIS52      -0.1959
     18  CA        20.9230   28.5890  -41.7980 C.3    52  HIS52       0.1787
     19  C         20.4350   29.8350  -42.5110 C.2    52  HIS52       0.2620
     20  O         20.1260   29.8290  -43.7060 O.2    52  HIS52      -0.2715
     21  CB        19.8200   27.5420  -41.6410 C.3    52  HIS52       0.0785
     22  CG        18.5660   27.9750  -40.9700 C.ar   52  HIS52       0.0821
     23  ND1       17.5260   28.5470  -41.6740 N.ar   52  HIS52      -0.2267
     24  CD2       18.1590   27.9210  -39.6820 C.ar   52  HIS52       0.1154
     25  CE1       16.5360   28.8340  -40.8480 C.ar   52  HIS52       0.1986
     26  NE2       16.8900   28.4640  -39.6310 N.ar   52  HIS52      -0.2212
     27  N         20.3600   30.9770  -41.8330 N.am   53  THR53      -0.1951
     28  CA        19.9460   32.1410  -42.6170 C.3    53  THR53       0.1897
     29  C         21.1390   33.0350  -42.9350 C.2    53  THR53       0.2313
     30  O         20.9640   34.2150  -43.2530 O.2    53  THR53      -0.2863
     31  CB        18.8750   32.9490  -41.8710 C.3    53  THR53       0.1794
     32  OG1       19.4900   33.5780  -40.7440 O.3    53  THR53      -0.2208
     33  CG2       17.7920   32.0080  -41.3620 C.3    53  THR53       0.0378
     34  N         23.6760   35.1090  -41.6470 N.3    55  ASP55      -0.1239
     35  CA        24.2100   35.8920  -40.5380 C.3    55  ASP55       0.1674
     36  C         24.1970   35.1010  -39.2410 C.2    55  ASP55       0.2266
     37  O         23.1640   34.5560  -38.8530 O.2    55  ASP55      -0.2867
     38  CB        23.4060   37.1860  -40.3720 C.3    55  ASP55       0.1410
     39  CG        22.7070   37.6100  -41.6500 C.2    55  ASP55       0.3668
     40  OD1       21.8390   36.8650  -42.1570 O.co2  55  ASP55      -0.2456
     41  OD2       23.0260   38.7080  -42.1580 O.co2  55  ASP55      -0.2456
     42  N         23.5870   34.7540  -35.8000 N.3    57  VAL57      -0.1231
     43  CA        22.8730   35.4700  -34.7430 C.3    57  VAL57       0.1692
     44  C         22.1820   34.4670  -33.8290 C.2    57  VAL57       0.2593
     45  O         21.9400   33.3250  -34.2310 O.2    57  VAL57      -0.2718
     46  CB        21.8890   36.4690  -35.3680 C.3    57  VAL57       0.0266
     47  CG1       22.6460   37.5670  -36.1120 C.3    57  VAL57       0.0020
     48  CG2       20.9330   35.7940  -36.3420 C.3    57  VAL57       0.0020
     49  N         21.8640   34.8430  -32.5970 N.am   58  SER58      -0.1938
     50  CA        21.1970   33.8810  -31.7190 C.3    58  SER58       0.2055
     51  C         19.8700   33.4470  -32.3550 C.2    58  SER58       0.2643
     52  O         19.0970   34.2920  -32.7990 O.2    58  SER58      -0.2714
     53  CB        20.9890   34.4280  -30.3210 C.3    58  SER58       0.2130
     54  OG        20.1570   35.5610  -30.2290 O.3    58  SER58      -0.2179
     55  N         19.6770   32.1390  -32.3750 N.am   59  CYS59      -0.1967
     56  CA        18.4790   31.4970  -32.8860 C.3    59  CYS59       0.1712
     57  C         17.2410   32.1330  -32.2770 C.2    59  CYS59       0.2296
     58  O         16.2640   32.3690  -32.9870 O.2    59  CYS59      -0.2864
     59  CB        18.5050   29.9930  -32.6120 C.3    59  CYS59       0.0983
     60  SG        20.0970   29.1750  -32.8710 S.3    59  CYS59      -0.0798
     61  N         16.5240   34.9740  -31.6880 N.3    61  THR61      -0.1203
     62  CA        16.1770   36.2710  -32.2720 C.3    61  THR61       0.1994
     63  C         14.9750   36.0600  -33.1910 C.2    61  THR61       0.2618
     64  O         14.1030   36.9250  -33.3040 O.2    61  THR61      -0.2717
     65  CB        17.3660   36.9000  -33.0090 C.3    61  THR61       0.1784
     66  OG1       17.8250   36.0260  -34.0470 O.3    61  THR61      -0.2211
     67  CG2       18.5560   37.0680  -32.0730 C.3    61  THR61       0.0376
     68  N         14.9050   34.8880  -33.8300 N.am   62  CYS62      -0.1955
     69  CA        13.7450   34.5440  -34.6430 C.3    62  CYS62       0.1843
     70  C         12.9060   33.4290  -34.0220 C.2    62  CYS62       0.2625
     71  O         11.6820   33.4110  -34.1800 O.2    62  CYS62      -0.2714
     72  CB        14.1780   34.1110  -36.0490 C.3    62  CYS62       0.0997
     73  SG        15.1440   35.4100  -36.8800 S.3    62  CYS62      -0.0797
     74  N         13.5530   32.4920  -33.3340 N.am   63  HIS63      -0.1973
     75  CA        12.8000   31.3650  -32.7740 C.3    63  HIS63       0.1656
     76  C         12.5450   31.6010  -31.2960 C.2    63  HIS63       0.2291
     77  O         13.2880   31.1430  -30.4290 O.2    63  HIS63      -0.2864
     78  CB        13.5510   30.0640  -33.0150 C.3    63  HIS63       0.0771
     79  CG        13.7070   29.6660  -34.4480 C.ar   63  HIS63       0.0820
     80  ND1       12.6720   29.2950  -35.2780 N.ar   63  HIS63      -0.2267
     81  CD2       14.8250   29.5550  -35.2100 C.ar   63  HIS63       0.1154
     82  CE1       13.1340   28.9880  -36.4840 C.ar   63  HIS63       0.1986
     83  NE2       14.4520   29.1420  -36.4660 N.ar   63  HIS63      -0.2212
     84  N          6.6550   35.8090  -36.5740 N.3    69  ALA69      -0.1231
     85  CA         6.7390   35.8450  -38.0280 C.3    69  ALA69       0.1694
     86  C          8.1780   35.7160  -38.5190 C.2    69  ALA69       0.2592
     87  O          8.4000   35.0430  -39.5330 O.2    69  ALA69      -0.2718
     88  CB         6.0970   37.1230  -38.5420 C.3    69  ALA69       0.0304
     89  N          9.1400   36.3120  -37.8250 N.am   70  GLU70      -0.1966
     90  CA        10.5340   36.2240  -38.2610 C.3    70  GLU70       0.1733
     91  C         11.0460   34.7980  -38.3820 C.2    70  GLU70       0.2617
     92  O         11.9210   34.5210  -39.2090 O.2    70  GLU70      -0.2715
     93  CB        11.4360   37.0100  -37.3010 C.3    70  GLU70       0.0429
     94  CG        11.2160   38.5130  -37.4300 C.3    70  GLU70       0.1163
     95  CD         9.9940   38.9950  -36.6750 C.2    70  GLU70       0.3649
     96  OE1        9.2310   38.1600  -36.1460 O.co2  70  GLU70      -0.2457
     97  OE2        9.7890   40.2250  -36.6080 O.co2  70  GLU70      -0.2457
     98  N         10.5420   33.8550  -37.5870 N.am   71  GLY71      -0.1940
     99  CA        11.0060   32.4760  -37.7110 C.3    71  GLY71       0.2014
    100  C          9.9750   31.5960  -38.3850 C.2    71  GLY71       0.2638
    101  O          9.9890   30.3780  -38.2060 O.2    71  GLY71      -0.2714
    102  N          9.0830   32.2080  -39.1670 N.am   72  ASN72      -0.1972
    103  CA         7.9530   31.4850  -39.7330 C.3    72  ASN72       0.1688
    104  C          7.1700   30.8130  -38.6070 C.2    72  ASN72       0.2292
    105  O          6.6220   29.7340  -38.8030 O.2    72  ASN72      -0.2864
    106  CB         8.4040   30.4230  -40.7250 C.3    72  ASN72       0.1181
    107  CG         7.2640   29.8210  -41.5240 C.2    72  ASN72       0.2629
    108  OD1        7.3190   28.6730  -41.9810 O.2    72  ASN72      -0.2716
    109  ND2        6.2080   30.6120  -41.6970 N.am   72  ASN72      -0.0877
    110  N          8.1300   29.0920  -36.3030 N.3    74  ILE74      -0.1245
    111  CA         8.8150   27.9510  -35.7000 C.3    74  ILE74       0.1561
    112  C          9.3570   28.3610  -34.3420 C.2    74  ILE74       0.2260
    113  O         10.1690   29.2780  -34.2270 O.2    74  ILE74      -0.2867
    114  CB         9.9400   27.4640  -36.6180 C.3    74  ILE74       0.0252
    115  CG1        9.3950   27.0300  -37.9860 C.3    74  ILE74       0.0019
    116  CG2       10.7770   26.3720  -35.9760 C.3    74  ILE74       0.0019
    117  CD1        8.4700   25.8330  -37.8930 C.3    74  ILE74       0.0001
    118  N         10.7840   23.8020  -31.2550 N.3    78  ARG78      -0.1231
    119  CA        10.9220   23.1300  -32.5370 C.3    78  ARG78       0.1694
    120  C         12.3170   23.3030  -33.1350 C.2    78  ARG78       0.2592
    121  O         12.8970   22.3750  -33.7010 O.2    78  ARG78      -0.2718
    122  CB         9.8880   23.6740  -33.5300 C.3    78  ARG78       0.0321
    123  CG         9.9640   23.0700  -34.9180 C.3    78  ARG78       0.0489
    124  CD         9.6020   21.6010  -34.9210 C.3    78  ARG78       0.2205
    125  NE         9.7030   21.0370  -36.2550 N.pl3  78  ARG78      -0.0865
    126  CZ         9.7600   19.7470  -36.5570 C.cat  78  ARG78       0.5346
    127  NH1        9.7260   18.8230  -35.6010 N.pl3  78  ARG78       0.1354
    128  NH2        9.8510   19.3810  -37.8350 N.pl3  78  ARG78       0.1354
    129  N         12.8250   24.5260  -33.0010 N.am   79  ALA79      -0.1966
    130  CA        14.1230   24.8810  -33.5520 C.3    79  ALA79       0.1728
    131  C         15.2420   24.0350  -32.9510 C.2    79  ALA79       0.2616
    132  O         16.1720   23.6090  -33.6400 O.2    79  ALA79      -0.2715
    133  CB        14.3870   26.3640  -33.3060 C.3    79  ALA79       0.0334
    134  N         15.1620   23.8000  -31.6450 N.am   80  MET80      -0.1977
    135  CA        16.2370   23.1130  -30.9470 C.3    80  MET80       0.1605
    136  C         16.0890   21.6010  -30.9920 C.2    80  MET80       0.2287
    137  O         17.1120   20.9090  -30.9290 O.2    80  MET80      -0.2864
    138  CB        16.3120   23.5720  -29.4810 C.3    80  MET80       0.0413
    139  CG        16.4760   25.0780  -29.3340 C.3    80  MET80       0.0598
    140  SD        17.9960   25.6810  -30.1070 S.3    80  MET80      -0.1393
    141  CE        17.3960   26.3490  -31.6470 C.3    80  MET80       0.0692
    142  N         13.6980   19.7430  -33.1950 N.3    82  ALA82      -0.1245
    143  CA        13.0340   19.1580  -34.3530 C.3    82  ALA82       0.1562
    144  C         13.7470   17.9170  -34.8800 C.2    82  ALA82       0.2260
    145  O         14.9740   17.8820  -34.9460 O.2    82  ALA82      -0.2867
    146  CB        12.9080   20.1880  -35.4700 C.3    82  ALA82       0.0290
    147  N         11.6920   16.1770  -37.4630 N.3    84  ASN84      -0.1225
    148  CA        11.0670   15.8960  -38.7640 C.3    84  ASN84       0.1785
    149  C         11.3150   17.0500  -39.7290 C.2    84  ASN84       0.2597
    150  O         10.3690   17.7830  -40.0190 O.2    84  ASN84      -0.2718
    151  CB         9.5710   15.6400  -38.6400 C.3    84  ASN84       0.1169
    152  CG         8.9200   15.9770  -37.3230 C.2    84  ASN84       0.2627
    153  OD1        9.5190   15.9820  -36.2460 O.2    84  ASN84      -0.2716
    154  ND2        7.6190   16.2670  -37.3830 N.am   84  ASN84      -0.0877
    155  N         12.5500   17.2210  -40.2020 N.am   85  ILE85      -0.1966
    156  CA        12.8610   18.4270  -40.9720 C.3    85  ILE85       0.1727
    157  C         12.9340   18.1670  -42.4720 C.2    85  ILE85       0.2616
    158  O         13.7050   17.3640  -42.9890 O.2    85  ILE85      -0.2715
    159  CB        14.1710   19.0900  -40.5030 C.3    85  ILE85       0.0290
    160  CG1       14.2160   19.3370  -38.9930 C.3    85  ILE85       0.0022
    161  CG2       14.4170   20.3760  -41.2870 C.3    85  ILE85       0.0023
    162  CD1       15.6100   19.5860  -38.4620 C.3    85  ILE85       0.0001
    163  N         12.0790   18.9030  -43.1820 N.am   86  ALA86      -0.1977
    164  CA        11.9460   18.7470  -44.6250 C.3    86  ALA86       0.1597
    165  C         13.1550   19.2890  -45.3770 C.2    86  ALA86       0.2287
    166  O         13.6310   20.3940  -45.1000 O.2    86  ALA86      -0.2864
    167  CB        10.6710   19.4360  -45.1080 C.3    86  ALA86       0.0319
    168  N         15.0080   21.3620  -47.6810 N.3    88  ARG88      -0.1245
    169  CA        14.6010   22.6530  -48.2410 C.3    88  ARG88       0.1563
    170  C         14.9740   22.7330  -49.7200 C.2    88  ARG88       0.2260
    171  O         16.1500   22.6280  -50.0840 O.2    88  ARG88      -0.2867
    172  CB        15.2250   23.8130  -47.4640 C.3    88  ARG88       0.0307
    173  CG        14.6410   24.0420  -46.0810 C.3    88  ARG88       0.0489
    174  CD        13.1410   23.8090  -46.0700 C.3    88  ARG88       0.2205
    175  NE        12.4630   24.4030  -44.9260 N.pl3  88  ARG88      -0.0865
    176  CZ        12.2610   23.7990  -43.7620 C.cat  88  ARG88       0.5346
    177  NH1       12.6970   22.5580  -43.5830 N.pl3  88  ARG88       0.1354
    178  NH2       11.6300   24.4110  -42.7670 N.pl3  88  ARG88       0.1354
    179  N         19.1270   26.6410  -47.7240 N.3    92  ASN92      -0.1240
    180  CA        19.5950   25.8380  -46.6110 C.3    92  ASN92       0.1653
    181  C         18.4950   25.0570  -45.8990 C.2    92  ASN92       0.2266
    182  O         17.5400   25.6360  -45.3830 O.2    92  ASN92      -0.2867
    183  CB        20.2910   26.7500  -45.5900 C.3    92  ASN92       0.1155
    184  CG        21.5420   27.4340  -46.0940 C.2    92  ASN92       0.2627
    185  OD1       22.3380   26.8580  -46.8380 O.2    92  ASN92      -0.2716
    186  ND2       21.7530   28.6850  -45.6910 N.am   92  ASN92      -0.0877
    187  N         17.5390   23.7890  -42.7250 N.3    94  PRO94      -0.2102
    188  CA        17.9380   23.9820  -41.3310 C.3    94  PRO94       0.1504
    189  C         18.2190   22.6720  -40.5920 C.2    94  PRO94       0.2576
    190  O         17.7090   21.6050  -40.9440 O.2    94  PRO94      -0.2718
    191  CB        16.7110   24.6530  -40.7080 C.3    94  PRO94       0.0282
    192  CG        15.9720   25.2750  -41.8440 C.3    94  PRO94       0.0208
    193  CD        16.2840   24.4720  -43.0690 C.3    94  PRO94       0.0893
    194  N         19.0400   22.7620  -39.5450 N.am   95  VAL95      -0.1966
    195  CA        19.2440   21.6420  -38.6390 C.3    95  VAL95       0.1727
    196  C         18.8920   22.0390  -37.2020 C.2    95  VAL95       0.2617
    197  O         18.9000   23.2220  -36.8480 O.2    95  VAL95      -0.2715
    198  CB        20.6900   21.1030  -38.6550 C.3    95  VAL95       0.0290
    199  CG1       21.0260   20.4720  -39.9940 C.3    95  VAL95       0.0023
    200  CG2       21.6600   22.2250  -38.3200 C.3    95  VAL95       0.0023
    201  N         18.5970   21.0300  -36.3840 N.am   96  SER96      -0.1936
    202  CA        18.3560   21.2270  -34.9610 C.3    96  SER96       0.2055
    203  C         19.4440   20.5290  -34.1460 C.2    96  SER96       0.2643
    204  O         20.1410   19.6760  -34.7020 O.2    96  SER96      -0.2714
    205  CB        16.9860   20.6930  -34.5300 C.3    96  SER96       0.2130
    206  OG        16.9300   19.2750  -34.5720 O.3    96  SER96      -0.2179
    207  N         19.5650   20.8770  -32.8650 N.am   97  CYS97      -0.1967
    208  CA        20.5050   20.1660  -32.0000 C.3    97  CYS97       0.1712
    209  C         20.2500   18.6570  -32.0800 C.2    97  CYS97       0.2296
    210  O         21.1510   17.8570  -32.3180 O.2    97  CYS97      -0.2864
    211  CB        20.4280   20.5870  -30.5420 C.3    97  CYS97       0.0983
    212  SG        20.2760   22.3410  -30.1930 S.3    97  CYS97      -0.0798
@<TRIPOS>BOND
     1   171   170    2
     2   170   169    1
     3   169   168    1
     4   169   172    1
     5   179   180    1
     6   172   173    1
     7   185   184    2
     8   180   181    1
     9   180   183    1
    10   184   186   am
    11   184   183    1
    12   173   174    1
    13   174   175    1
    14   181   182    2
    15   165   166    2
    16   165   164    1
    17   167   164    1
    18   175   176    2
    19   164   163    1
    20   176   177    1
    21   176   178    1
    22    20    19    2
    23    30    29    2
    24   163   157   am
    25   193   187    1
    26   193   192    1
    27   158   157    2
    28    29    28    1
    29   187   188    1
    30    28    31    1
    31    28    27    1
    32    19    27   am
    33    19    18    1
    34   157   156    1
    35    41    39   ar
    36    40    39   ar
    37   108   107    2
    38    31    33    1
    39    31    32    1
    40   192   191    1
    41    18    21    1
    42    18    17    1
    43   109   107   am
    44    23    22   ar
    45    23    25   ar
    46    39    38    1
    47    34    35    1
    48    21    22    1
    49   107   106    1
    50   188   191    1
    51   188   189    1
    52   161   159    1
    53    10     9    2
    54   156   159    1
    55   156   155    1
    56    22    24   ar
    57   190   189    2
    58    25    26   ar
    59   106   103    1
    60   189   194   am
    61    35    38    1
    62    35    36    1
    63    17     9   am
    64   159   160    1
    65     9     8    1
    66   155   149   am
    67   150   149    2
    68   199   198    1
    69   103   102    1
    70   103   104    1
    71   149   148    1
    72    24    26   ar
    73   194   195    1
    74    87    86    2
    75     1     2    1
    76    36    37    2
    77    92    91    2
    78   102   100   am
    79   160   162    1
    80     8    11    1
    81     8     7    1
    82   105   104    2
    83   148   151    1
    84   148   147    1
    85    11    12    1
    86     7     3   am
    87   198   195    1
    88   198   200    1
    89   151   152    1
    90   195   196    1
    91    88    85    1
    92    86    85    1
    93    86    89   am
    94     3     4    2
    95     3     2    1
    96   100   101    2
    97   100    99    1
    98    91    90    1
    99    91    98   am
   100     2     5    1
   101    90    89    1
   102    90    93    1
   103    85    84    1
   104   115   117    1
   105   115   114    1
   106   128   126    1
   107    99    98    1
   108    12    14   ar
   109    12    13   ar
   110    94    93    1
   111    94    95    1
   112   154   152   am
   113   152   153    2
   114    14    16   ar
   115   196   197    2
   116   196   201   am
   117     5     6    1
   118    73    72    1
   119    95    97   ar
   120    95    96   ar
   121   114   116    1
   122   114   111    1
   123   126   125    2
   124   126   127    1
   125    82    83   ar
   126    82    80   ar
   127    83    81   ar
   128   201   202    1
   129    48    46    1
   130   110   111    1
   131    13    15   ar
   132   125   124    1
   133    47    46    1
   134    72    69    1
   135    16    15   ar
   136    42    43    1
   137   111   112    1
   138   146   143    1
   139    46    43    1
   140    80    79   ar
   141    81    79   ar
   142   202   205    1
   143   202   203    1
   144   145   144    2
   145   124   123    1
   146   123   122    1
   147   144   143    1
   148    43    44    1
   149   204   203    2
   150    69    70    1
   151    69    68    1
   152   206   205    1
   153    79    78    1
   154   143   142    1
   155   112   113    2
   156    45    44    2
   157    71    70    2
   158   203   207   am
   159    66    65    1
   160    70    74   am
   161    68    63   am
   162    44    49   am
   163   121   120    2
   164   132   131    2
   165   130   133    1
   166   130   129    1
   167   130   131    1
   168   122   119    1
   169    74    75    1
   170    64    63    2
   171    63    62    1
   172   120   129   am
   173   120   119    1
   174    78    75    1
   175    65    62    1
   176    65    67    1
   177    58    57    2
   178   131   134   am
   179    56    59    1
   180    56    55    1
   181    56    57    1
   182    60    59    1
   183   207   208    1
   184    52    51    2
   185    75    76    1
   186    49    50    1
   187   119   118    1
   188    55    51   am
   189    51    50    1
   190   210   209    2
   191    62    61    1
   192   209   208    1
   193   208   211    1
   194    50    53    1
   195   141   140    1
   196   134   135    1
   197    76    77    2
   198   136   135    1
   199   136   137    2
   200   135   138    1
   201   211   212    1
   202    53    54    1
   203   140   139    1
   204   138   139    1
