@<TRIPOS>MOLECULE
tmp/1ofyB09.pdb
 202 202 0 0 0
SMALL
GASTEIGER

@<TRIPOS>ATOM
      1  N         24.7750  -19.2260  -26.3680 N.3   183  ILE183     -0.1231
      2  CA        23.3350  -18.9990  -26.5550 C.3   183  ILE183      0.1692
      3  C         22.6240  -20.2610  -27.0110 C.2   183  ILE183      0.2592
      4  O         22.6290  -20.6300  -28.1860 O.2   183  ILE183     -0.2718
      5  CB        23.1200  -17.8410  -27.5450 C.3   183  ILE183      0.0266
      6  CG1       24.0070  -16.6320  -27.2170 C.3   183  ILE183      0.0019
      7  CG2       21.6510  -17.4860  -27.6160 C.3   183  ILE183      0.0020
      8  CD1       23.7610  -15.4150  -28.0870 C.3   183  ILE183      0.0001
      9  N         22.0070  -20.9430  -26.0470 N.am  184  ASP184     -0.1960
     10  CA        21.4180  -22.2480  -26.3220 C.3   184  ASP184      0.1840
     11  C         19.9310  -22.3540  -25.9980 C.2   184  ASP184      0.2622
     12  O         19.3820  -23.4610  -26.0300 O.2   184  ASP184     -0.2715
     13  CB        22.1950  -23.2890  -25.5040 C.3   184  ASP184      0.1450
     14  CG        22.0840  -23.0480  -24.0140 C.2   184  ASP184      0.3671
     15  OD1       21.3360  -22.1400  -23.5900 O.co2 184  ASP184     -0.2456
     16  OD2       22.7390  -23.7700  -23.2340 O.co2 184  ASP184     -0.2456
     17  N         19.2640  -21.2430  -25.6800 N.am  185  ALA185     -0.1963
     18  CA        17.8580  -21.2940  -25.2850 C.3   185  ALA185      0.1728
     19  C         16.9810  -22.0480  -26.2810 C.2   185  ALA185      0.2616
     20  O         16.0340  -22.7290  -25.8710 O.2   185  ALA185     -0.2715
     21  CB        17.2980  -19.8890  -25.0840 C.3   185  ALA185      0.0334
     22  N         17.2770  -21.9420  -27.5710 N.am  186  LEU186     -0.1963
     23  CA        16.4450  -22.5660  -28.5870 C.3   186  LEU186      0.1728
     24  C         17.1050  -23.7410  -29.3060 C.2   186  LEU186      0.2616
     25  O         16.5590  -24.1700  -30.3300 O.2   186  LEU186     -0.2715
     26  CB        16.0760  -21.5240  -29.6570 C.3   186  LEU186      0.0311
     27  CG        15.3450  -20.2760  -29.1460 C.3   186  LEU186      0.0022
     28  CD1       15.2570  -19.2240  -30.2430 C.3   186  LEU186      0.0001
     29  CD2       13.9730  -20.6740  -28.6290 C.3   186  LEU186      0.0001
     30  N         18.2400  -24.2170  -28.8110 N.am  187  ALA187     -0.1963
     31  CA        19.1140  -25.0930  -29.5960 C.3   187  ALA187      0.1728
     32  C         18.3530  -26.3040  -30.1210 C.2   187  ALA187      0.2616
     33  O         17.7250  -27.0200  -29.3430 O.2   187  ALA187     -0.2715
     34  CB        20.3270  -25.5250  -28.7880 C.3   187  ALA187      0.0334
     35  N         18.3970  -26.5050  -31.4370 N.am  188  ASP188     -0.1957
     36  CA        17.5920  -27.5780  -32.0210 C.3   188  ASP188      0.1840
     37  C         18.0550  -27.9370  -33.4230 C.2   188  ASP188      0.2622
     38  O         18.7140  -28.9540  -33.6560 O.2   188  ASP188     -0.2715
     39  CB        16.1250  -27.1290  -32.0260 C.3   188  ASP188      0.1450
     40  CG        15.2540  -28.0130  -32.8980 C.2   188  ASP188      0.3671
     41  OD1       15.2310  -29.2270  -32.6090 O.co2 188  ASP188     -0.2456
     42  OD2       14.6170  -27.5080  -33.8460 O.co2 188  ASP188     -0.2456
     43  N         17.7150  -27.1020  -34.4100 N.am  189  LYS189     -0.1963
     44  CA        18.2580  -27.3390  -35.7470 C.3   189  LYS189      0.1728
     45  C         19.7650  -27.1040  -35.7270 C.2   189  LYS189      0.2616
     46  O         20.5160  -27.6520  -36.5290 O.2   189  LYS189     -0.2715
     47  CB        17.5870  -26.4460  -36.7830 C.3   189  LYS189      0.0311
     48  CG        16.0860  -26.6620  -36.9200 C.3   189  LYS189      0.0038
     49  CD        15.3190  -25.8650  -35.8770 C.3   189  LYS189      0.0206
     50  CE        13.8680  -26.3100  -35.7990 C.3   189  LYS189      0.1093
     51  NZ        13.1810  -26.1960  -37.1150 N.3   189  LYS189     -0.1314
     52  N         20.2300  -26.2720  -34.8000 N.am  190  TYR190     -0.1960
     53  CA        21.6440  -25.9400  -34.7640 C.3   190  TYR190      0.1771
     54  C         22.2300  -26.0860  -33.3710 C.2   190  TYR190      0.2619
     55  O         21.4990  -26.1300  -32.3890 O.2   190  TYR190     -0.2715
     56  CB        21.8900  -24.4920  -35.2180 C.3   190  TYR190      0.0574
     57  CG        21.4770  -24.2230  -36.6440 C.ar  190  TYR190     -0.0198
     58  CD1       22.3630  -24.4350  -37.6910 C.ar  190  TYR190     -0.0009
     59  CD2       20.2070  -23.7620  -36.9400 C.ar  190  TYR190     -0.0009
     60  CE1       21.9960  -24.1940  -38.9970 C.ar  190  TYR190      0.0417
     61  CE2       19.8290  -23.5220  -38.2400 C.ar  190  TYR190      0.0417
     62  CZ        20.7270  -23.7400  -39.2620 C.ar  190  TYR190      0.1957
     63  OH        20.3490  -23.4940  -40.5630 O.3   190  TYR190     -0.2866
     64  N         23.5550  -26.1350  -33.3300 N.am  191  GLU191     -0.1964
     65  CA        24.2970  -25.9990  -32.0900 C.3   191  GLU191      0.1718
     66  C         24.0730  -24.5850  -31.5450 C.2   191  GLU191      0.2458
     67  O         23.7510  -23.6890  -32.3230 O.2   191  GLU191     -0.2730
     68  CB        25.7930  -26.2270  -32.2890 C.3   191  GLU191      0.0428
     69  CG        26.2210  -27.6820  -32.4100 C.3   191  GLU191      0.1163
     70  CD        26.0890  -28.4480  -31.1080 C.2   191  GLU191      0.3649
     71  OE1       26.9710  -28.2790  -30.2350 O.co2 191  GLU191     -0.2457
     72  OE2       25.1170  -29.2160  -30.9360 O.co2 191  GLU191     -0.2457
     73  N         24.2780  -24.4140  -30.2520 N.am  192  PRO192     -0.2716
     74  CA        24.1820  -23.1010  -29.6280 C.3   192  PRO192      0.1536
     75  C         25.0870  -22.1130  -30.3620 C.2   192  PRO192      0.2599
     76  O         25.9630  -22.5720  -31.0970 O.2   192  PRO192     -0.2715
     77  CB        24.7650  -23.3160  -28.2320 C.3   192  PRO192      0.0310
     78  CG        24.5880  -24.7650  -27.9600 C.3   192  PRO192      0.0237
     79  CD        24.6540  -25.4630  -29.2880 C.3   192  PRO192      0.0939
     80  N         24.8780  -20.8250  -30.1430 N.am  193  SER193     -0.1950
     81  CA        25.7670  -19.7850  -30.6550 C.3   193  SER193      0.1924
     82  C         26.7320  -19.3840  -29.5360 C.2   193  SER193      0.2314
     83  O         26.3120  -18.9100  -28.4760 O.2   193  SER193     -0.2863
     84  CB        24.9730  -18.5990  -31.1810 C.3   193  SER193      0.2116
     85  OG        25.7670  -17.6350  -31.8300 O.3   193  SER193     -0.2180
     86  N         13.5690  -16.4300  -31.3390 N.3   260  MET260     -0.1245
     87  CA        14.4500  -16.5520  -32.5000 C.3   260  MET260      0.1570
     88  C         14.5050  -15.2390  -33.2680 C.2   260  MET260      0.2261
     89  O         15.5390  -14.7610  -33.7400 O.2   260  MET260     -0.2867
     90  CB        13.9980  -17.6960  -33.4250 C.3   260  MET260      0.0387
     91  CG        14.9530  -17.9230  -34.5900 C.3   260  MET260      0.0595
     92  SD        14.4780  -19.2610  -35.7010 S.3   260  MET260     -0.1393
     93  CE        13.2950  -18.4500  -36.7550 C.3   260  MET260      0.0692
     94  N         16.7880  -12.5550  -31.3220 N.3   263  TYR263     -0.1227
     95  CA        18.1950  -12.7890  -31.6340 C.3   263  TYR263      0.1736
     96  C         18.5080  -12.3460  -33.0600 C.2   263  TYR263      0.2595
     97  O         19.3740  -11.5030  -33.2900 O.2   263  TYR263     -0.2718
     98  CB        18.5850  -14.2560  -31.4800 C.3   263  TYR263      0.0548
     99  CG        18.5850  -14.8020  -30.0770 C.ar  263  TYR263     -0.0200
    100  CD1       19.3090  -14.2040  -29.0640 C.ar  263  TYR263     -0.0009
    101  CD2       17.8590  -15.9390  -29.7590 C.ar  263  TYR263     -0.0009
    102  CE1       19.3030  -14.7160  -27.7810 C.ar  263  TYR263      0.0417
    103  CE2       17.8450  -16.4610  -28.4740 C.ar  263  TYR263      0.0417
    104  CZ        18.5710  -15.8470  -27.4830 C.ar  263  TYR263      0.1957
    105  OH        18.5750  -16.3410  -26.2010 O.3   263  TYR263     -0.2866
    106  N         17.8060  -12.9110  -34.0430 N.am  264  HIS264     -0.1975
    107  CA        18.1490  -12.6300  -35.4320 C.3   264  HIS264      0.1656
    108  C         18.0760  -11.1410  -35.7360 C.2   264  HIS264      0.2291
    109  O         18.9870  -10.5840  -36.3360 O.2   264  HIS264     -0.2864
    110  CB        17.2430  -13.3910  -36.4020 C.3   264  HIS264      0.0771
    111  CG        17.6200  -14.8310  -36.5730 C.ar  264  HIS264      0.0820
    112  ND1       16.8880  -15.6870  -37.3700 N.ar  264  HIS264     -0.2267
    113  CD2       18.6340  -15.5620  -36.0660 C.ar  264  HIS264      0.1154
    114  CE1       17.4330  -16.8890  -37.3440 C.ar  264  HIS264      0.1986
    115  NE2       18.4940  -16.8390  -36.5620 N.ar  264  HIS264     -0.2212
    116  N         21.1610   -9.3160  -33.6680 N.3   267  CYS267     -0.1221
    117  CA        22.5020   -9.5810  -34.1950 C.3   267  CYS267      0.1808
    118  C         22.6680   -9.0760  -35.6270 C.2   267  CYS267      0.2601
    119  O         23.6350   -8.3830  -35.9600 O.2   267  CYS267     -0.2717
    120  CB        22.8400  -11.0720  -34.1490 C.3   267  CYS267      0.0970
    121  SG        22.4470  -11.9030  -32.6050 S.3   267  CYS267     -0.0800
    122  N         21.7110   -9.4260  -36.4910 N.am  268  MET268     -0.1979
    123  CA        21.8150   -9.0350  -37.8900 C.3   268  MET268      0.1605
    124  C         21.5620   -7.5410  -38.0390 C.2   268  MET268      0.2287
    125  O         22.0520   -6.8890  -38.9570 O.2   268  MET268     -0.2864
    126  CB        20.8470   -9.8100  -38.7790 C.3   268  MET268      0.0413
    127  CG        20.7920  -11.3230  -38.6040 C.3   268  MET268      0.0598
    128  SD        19.5250  -12.0280  -39.7050 S.3   268  MET268     -0.1393
    129  CE        19.7790  -13.7800  -39.4510 C.3   268  MET268      0.0692
    130  N         24.9250   -5.8110  -37.4430 N.3   271  HIS271     -0.1241
    131  CA        25.8410   -6.2410  -38.4970 C.3   271  HIS271      0.1621
    132  C         25.5610   -5.4510  -39.7640 C.2   271  HIS271      0.2264
    133  O         26.4420   -4.9250  -40.4460 O.2   271  HIS271     -0.2867
    134  CB        25.7320   -7.7520  -38.7280 C.3   271  HIS271      0.0745
    135  CG        26.3870   -8.5790  -37.6560 C.ar  271  HIS271      0.0817
    136  ND1       26.3380   -9.9540  -37.6260 N.ar  271  HIS271     -0.2268
    137  CD2       27.1220   -8.2330  -36.5710 C.ar  271  HIS271      0.1154
    138  CE1       27.0030  -10.4050  -36.5730 C.ar  271  HIS271      0.1986
    139  NE2       27.5000   -9.3780  -35.9000 N.ar  271  HIS271     -0.2212
    140  N         29.4470  -12.3190  -40.4010 N.3   279  PRO279     -0.2102
    141  CA        28.5020  -13.0540  -41.2370 C.3   279  PRO279      0.1504
    142  C         27.4370  -12.1830  -41.8890 C.2   279  PRO279      0.2576
    143  O         26.9360  -11.2380  -41.2950 O.2   279  PRO279     -0.2718
    144  CB        27.7980  -13.9740  -40.2250 C.3   279  PRO279      0.0282
    145  CG        27.7600  -13.1150  -38.9960 C.3   279  PRO279      0.0208
    146  CD        29.1000  -12.4290  -38.9660 C.3   279  PRO279      0.0893
    147  N         27.1200  -12.5400  -43.1290 N.am  280  ARG280     -0.1966
    148  CA        25.9570  -12.0220  -43.8290 C.3   280  ARG280      0.1729
    149  C         24.7020  -12.5830  -43.1600 C.2   280  ARG280      0.2616
    150  O         24.7950  -13.5520  -42.3930 O.2   280  ARG280     -0.2715
    151  CB        25.9890  -12.4140  -45.2970 C.3   280  ARG280      0.0348
    152  CG        27.1380  -11.8390  -46.1090 C.3   280  ARG280      0.0492
    153  CD        26.6280  -11.1000  -47.3280 C.3   280  ARG280      0.2205
    154  NE        27.0610  -11.6000  -48.6190 N.pl3 280  ARG280     -0.0865
    155  CZ        26.2760  -11.9700  -49.6280 C.cat 280  ARG280      0.5346
    156  NH1       24.9510  -11.9130  -49.5240 N.pl3 280  ARG280      0.1354
    157  NH2       26.8100  -12.4090  -50.7660 N.pl3 280  ARG280      0.1354
    158  N         23.5380  -12.0080  -43.4430 N.am  281  ASP281     -0.1957
    159  CA        22.3020  -12.5480  -42.8780 C.3   281  ASP281      0.1840
    160  C         22.0800  -13.9890  -43.3200 C.2   281  ASP281      0.2623
    161  O         21.3930  -14.7850  -42.6760 O.2   281  ASP281     -0.2715
    162  CB        21.1130  -11.6840  -43.3010 C.3   281  ASP281      0.1450
    163  CG        21.1490  -10.3350  -42.6090 C.2   281  ASP281      0.3671
    164  OD1       21.8790  -10.2070  -41.5960 O.co2 281  ASP281     -0.2456
    165  OD2       20.4560   -9.3970  -43.0640 O.co2 281  ASP281     -0.2456
    166  N         22.6730  -14.3540  -44.4580 N.am  282  THR282     -0.1937
    167  CA        22.4970  -15.7010  -44.9920 C.3   282  THR282      0.2028
    168  C         23.6090  -16.6440  -44.5840 C.2   282  THR282      0.2642
    169  O         23.5850  -17.8060  -45.0010 O.2   282  THR282     -0.2714
    170  CB        22.4210  -15.6190  -46.5270 C.3   282  THR282      0.1808
    171  OG1       23.5500  -14.8540  -46.9840 O.3   282  THR282     -0.2208
    172  CG2       21.1560  -14.8850  -46.9450 C.3   282  THR282      0.0379
    173  N         24.5750  -16.1930  -43.7850 N.am  283  ASP283     -0.1957
    174  CA        25.6380  -17.1110  -43.3630 C.3   283  ASP283      0.1840
    175  C         25.2360  -17.8400  -42.0880 C.2   283  ASP283      0.2622
    176  O         25.8880  -17.7090  -41.0490 O.2   283  ASP283     -0.2715
    177  CB        26.9600  -16.3630  -43.1770 C.3   283  ASP283      0.1450
    178  CG        27.5320  -15.8790  -44.4980 C.2   283  ASP283      0.3671
    179  OD1       27.5230  -16.6660  -45.4700 O.co2 283  ASP283     -0.2456
    180  OD2       27.9850  -14.7160  -44.5940 O.co2 283  ASP283     -0.2456
    181  N         24.1560  -18.6190  -42.1630 N.am  284  CYS284     -0.1968
    182  CA        23.5560  -19.2310  -40.9860 C.3   284  CYS284      0.1712
    183  C         24.5570  -19.9940  -40.1320 C.2   284  CYS284      0.2296
    184  O         24.5260  -19.7950  -38.9060 O.2   284  CYS284     -0.2864
    185  CB        22.4110  -20.1850  -41.3520 C.3   284  CYS284      0.0983
    186  SG        21.4400  -19.6650  -42.7760 S.3   284  CYS284     -0.0798
    187  N         26.9810  -18.3120  -37.3180 N.3   287  CYS287     -0.1221
    188  CA        26.5930  -17.9520  -35.9530 C.3   287  CYS287      0.1808
    189  C         26.2490  -19.1840  -35.1340 C.2   287  CYS287      0.2601
    190  O         26.3460  -19.1900  -33.9100 O.2   287  CYS287     -0.2717
    191  CB        25.3860  -17.0060  -35.9400 C.3   287  CYS287      0.0970
    192  SG        25.7640  -15.3470  -36.5400 S.3   287  CYS287     -0.0800
    193  N         25.8270  -20.2420  -35.8210 N.am  288  HIS288     -0.1975
    194  CA        25.4740  -21.4890  -35.1430 C.3   288  HIS288      0.1656
    195  C         25.7060  -22.6630  -36.0960 C.2   288  HIS288      0.2291
    196  O         25.0500  -22.8310  -37.1200 O.2   288  HIS288     -0.2864
    197  CB        24.0420  -21.4420  -34.6260 C.3   288  HIS288      0.0771
    198  CG        23.0380  -20.7950  -35.5260 C.ar  288  HIS288      0.0820
    199  ND1       22.7690  -21.1750  -36.8230 N.ar  288  HIS288     -0.2267
    200  CD2       22.1920  -19.7580  -35.2780 C.ar  288  HIS288      0.1154
    201  CE1       21.8180  -20.4050  -37.3380 C.ar  288  HIS288      0.1986
    202  NE2       21.4570  -19.5350  -36.4100 N.ar  288  HIS288     -0.2212
@<TRIPOS>BOND
     1   157   155    1
     2   155   156    1
     3   155   154    2
     4   154   153    1
     5   153   152    1
     6   171   170    1
     7   172   170    1
     8   170   167    1
     9   152   151    1
    10   179   178   ar
    11   151   148    1
    12   169   168    2
    13   167   168    1
    14   167   166    1
    15   180   178   ar
    16   168   173   am
    17   178   177    1
    18   166   160   am
    19   148   149    1
    20   148   147    1
    21   173   174    1
    22   158   149   am
    23   158   159    1
    24   174   177    1
    25   174   175    1
    26   160   159    1
    27   160   161    2
    28   162   159    1
    29   162   163    1
    30   149   150    2
    31   147   142   am
    32   165   163   ar
    33   186   185    1
    34   163   164   ar
    35   181   175   am
    36   181   182    1
    37   175   176    2
    38   142   143    2
    39   142   141    1
    40   185   182    1
    41   141   140    1
    42   141   144    1
    43   182   183    1
    44    63    62    1
    45   133   132    2
    46   140   146    1
    47   144   145    1
    48   183   184    2
    49   132   131    1
    50   128   129    1
    51   128   127    1
    52    62    60   ar
    53    62    61   ar
    54    60    58   ar
    55   145   146    1
    56   125   124    2
    57   126   127    1
    58   126   123    1
    59   134   131    1
    60   134   135    1
    61   131   130    1
    62    61    59   ar
    63   124   123    1
    64   123   122    1
    65    58    57   ar
    66   135   136   ar
    67   135   137   ar
    68   136   138   ar
    69   112   114   ar
    70   112   111   ar
    71   114   115   ar
    72   201   199   ar
    73   201   202   ar
    74   187   188    1
    75   196   195    2
    76    51    50    1
    77    59    57   ar
    78    48    47    1
    79    48    49    1
    80   199   198   ar
    81    47    44    1
    82    93    92    1
    83    57    56    1
    84   111   110    1
    85   111   113   ar
    86   138   139   ar
    87   137   139   ar
    88   115   113   ar
    89   192   191    1
    90    46    45    2
    91   122   118   am
    92   202   200   ar
    93   110   107    1
    94   109   108    2
    95   195   194    1
    96   119   118    2
    97   188   191    1
    98   188   189    1
    99    49    50    1
   100   193   194    1
   101   193   189   am
   102    44    45    1
   103    44    43    1
   104   108   107    1
   105    45    52   am
   106    92    91    1
   107   118   117    1
   108   198   200   ar
   109   198   197    1
   110   107   106    1
   111    56    53    1
   112   194   197    1
   113   189   190    2
   114    52    53    1
   115    53    54    1
   116    91    90    1
   117    43    37   am
   118   117   120    1
   119   117   116    1
   120   120   121    1
   121   106    96   am
   122    42    40   ar
   123    89    88    2
   124    38    37    2
   125    90    87    1
   126    37    36    1
   127    54    64   am
   128    54    55    2
   129    64    65    1
   130    97    96    2
   131    88    87    1
   132    96    95    1
   133    40    41   ar
   134    40    39    1
   135    87    86    1
   136    69    68    1
   137    69    70    1
   138    67    66    2
   139    68    65    1
   140    65    66    1
   141    39    36    1
   142    36    35    1
   143    85    84    1
   144    95    98    1
   145    95    94    1
   146    66    73   am
   147    98    99    1
   148    35    32   am
   149    84    81    1
   150    70    72   ar
   151    70    71   ar
   152    76    75    2
   153    81    80    1
   154    81    82    1
   155    75    80   am
   156    75    74    1
   157    25    24    2
   158    73    74    1
   159    73    79    1
   160    28    27    1
   161    32    31    1
   162    32    33    2
   163    99   101   ar
   164    99   100   ar
   165   101   103   ar
   166    26    27    1
   167    26    23    1
   168    74    77    1
   169    31    30    1
   170    31    34    1
   171    82    83    2
   172    24    30   am
   173    24    23    1
   174    79    78    1
   175    27    29    1
   176   100   102   ar
   177    23    22    1
   178   103   104   ar
   179    77    78    1
   180     4     3    2
   181     8     6    1
   182   102   104   ar
   183     7     5    1
   184    22    19   am
   185     5     6    1
   186     5     2    1
   187   104   105    1
   188     3     2    1
   189     3     9   am
   190     2     1    1
   191    10     9    1
   192    10    11    1
   193    10    13    1
   194    19    20    2
   195    19    18    1
   196    12    11    2
   197    11    17   am
   198    17    18    1
   199    13    14    1
   200    18    21    1
   201    14    15   ar
   202    14    16   ar
