@<TRIPOS>MOLECULE
tmp/1ofzB02.pdb
 90 87 0 0 0
SMALL
GASTEIGER

@<TRIPOS>ATOM
      1  N         29.9190   16.7290   89.2930 N.3   120  TRP120     -0.1241
      2  CA        30.4950   16.1960   90.5290 C.3   120  TRP120      0.1605
      3  C         29.8860   14.8280   90.8130 C.2   120  TRP120      0.2264
      4  O         28.7020   14.5570   90.4910 O.2   120  TRP120     -0.2867
      5  CB        30.2910   17.0990   91.7530 C.3   120  TRP120      0.0550
      6  CG        28.9640   16.9340   92.4020 C.ar  120  TRP120      0.0003
      7  CD1       28.6580   16.0690   93.4450 C.ar  120  TRP120      0.0946
      8  CD2       27.7430   17.5700   92.0420 C.ar  120  TRP120      0.0152
      9  NE1       27.3230   16.1580   93.7380 N.ar  120  TRP120     -0.2442
     10  CE2       26.7310   17.0590   92.8970 C.ar  120  TRP120      0.0810
     11  CE3       27.3740   18.5170   91.0720 C.ar  120  TRP120      0.0012
     12  CZ2       25.4050   17.4790   92.8330 C.ar  120  TRP120      0.0191
     13  CZ3       26.0540   18.9220   91.0120 C.ar  120  TRP120      0.0001
     14  CH2       25.0880   18.4070   91.8750 C.ar  120  TRP120      0.0015
     15  N         25.5050   19.5430   85.3410 N.3   131  ARG131     -0.1245
     16  CA        24.7170   20.7590   85.1910 C.3   131  ARG131      0.1563
     17  C         25.2630   21.4770   83.9540 C.2   131  ARG131      0.2260
     18  O         26.4650   21.6280   83.8210 O.2   131  ARG131     -0.2867
     19  CB        24.8090   21.6650   86.4170 C.3   131  ARG131      0.0307
     20  CG        24.3920   20.9840   87.7120 C.3   131  ARG131      0.0489
     21  CD        22.9030   20.7260   87.7530 C.3   131  ARG131      0.2205
     22  NE        22.4420   20.1330   89.0140 N.pl3 131  ARG131     -0.0865
     23  CZ        22.4160   18.8400   89.2950 C.cat 131  ARG131      0.5346
     24  NH1       22.8690   17.9260   88.4570 N.pl3 131  ARG131      0.1354
     25  NH2       21.9430   18.4680   90.4870 N.pl3 131  ARG131      0.1354
     26  N         19.5500   26.3970   83.4770 N.3   146  GLU146     -0.1245
     27  CA        20.3070   25.2380   83.8880 C.3   146  GLU146      0.1567
     28  C         19.5530   23.9850   83.4630 C.2   146  GLU146      0.2260
     29  O         18.3310   23.9020   83.6540 O.2   146  GLU146     -0.2867
     30  CB        20.4760   25.2950   85.4080 C.3   146  GLU146      0.0388
     31  CG        21.1680   24.0920   86.0090 C.3   146  GLU146      0.1160
     32  CD        21.0080   24.0760   87.5220 C.2   146  GLU146      0.3649
     33  OE1       19.8530   24.1080   87.9990 O.co2 146  GLU146     -0.2457
     34  OE2       22.0320   24.0800   88.2290 O.co2 146  GLU146     -0.2457
     35  N         19.7570   19.7690   84.1240 N.3   148  VAL148     -0.1245
     36  CA        20.2120   18.9170   85.2270 C.3   148  VAL148      0.1561
     37  C         20.2200   17.4820   84.7440 C.2   148  VAL148      0.2260
     38  O         19.2110   17.0050   84.2230 O.2   148  VAL148     -0.2867
     39  CB        19.2120   18.9990   86.3690 C.3   148  VAL148      0.0252
     40  CG1       19.4620   17.9060   87.4140 C.3   148  VAL148      0.0019
     41  CG2       19.2370   20.3290   86.9800 C.3   148  VAL148      0.0019
     42  N         16.4060   22.7170   85.2510 N.3   156  GLY156     -0.1210
     43  CA        16.8910   23.1740   86.5290 C.3   156  GLY156      0.1956
     44  C         16.4490   24.6030   86.7320 C.2   156  GLY156      0.2611
     45  O         15.3700   25.0040   86.2950 O.2   156  GLY156     -0.2717
     46  N         17.2960   25.3880   87.3840 N.am  157  ALA157     -0.1979
     47  CA        16.9700   26.7440   87.7550 C.3   157  ALA157      0.1597
     48  C         17.1890   27.7330   86.6170 C.2   157  ALA157      0.2287
     49  O         17.7410   27.3950   85.5790 O.2   157  ALA157     -0.2864
     50  CB        17.8010   27.1580   88.9600 C.3   157  ALA157      0.0319
     51  N         28.0400   18.9590   95.2490 N.3   176  GLY176     -0.1225
     52  CA        26.7890   19.7040   95.1870 C.3   176  GLY176      0.1811
     53  C         26.9220   21.1650   95.5650 C.2   176  GLY176      0.2280
     54  O         25.9400   21.8010   95.9600 O.2   176  GLY176     -0.2866
     55  N         28.1180   24.6630   94.0500 N.3   178  LEU178     -0.1245
     56  CA        28.2900   25.1930   92.6940 C.3   178  LEU178      0.1561
     57  C         28.5640   26.6870   92.7100 C.2   178  LEU178      0.2260
     58  O         27.9580   27.4430   93.4720 O.2   178  LEU178     -0.2867
     59  CB        27.0510   24.9210   91.8680 C.3   178  LEU178      0.0270
     60  CG        26.4130   23.5390   92.0240 C.3   178  LEU178      0.0019
     61  CD1       25.1900   23.4560   91.1390 C.3   178  LEU178      0.0001
     62  CD2       27.4710   22.4480   91.6990 C.3   178  LEU178      0.0001
     63  N         25.3260   27.9360   94.7930 N.3   194  TRP194     -0.1241
     64  CA        24.4650   26.9580   95.4420 C.3   194  TRP194      0.1605
     65  C         25.3040   26.1250   96.3930 C.2   194  TRP194      0.2264
     66  O         26.3090   25.5590   96.0070 O.2   194  TRP194     -0.2867
     67  CB        23.7610   26.1010   94.3920 C.3   194  TRP194      0.0550
     68  CG        22.9350   24.9890   94.9390 C.ar  194  TRP194      0.0003
     69  CD1       23.3950   23.8610   95.5640 C.ar  194  TRP194      0.0946
     70  CD2       21.5130   24.8680   94.8960 C.ar  194  TRP194      0.0152
     71  NE1       22.3420   23.0570   95.9270 N.ar  194  TRP194     -0.2442
     72  CE2       21.1760   23.6560   95.5340 C.ar  194  TRP194      0.0810
     73  CE3       20.4780   25.6600   94.3980 C.ar  194  TRP194      0.0012
     74  CZ2       19.8690   23.2200   95.6600 C.ar  194  TRP194      0.0191
     75  CZ3       19.1620   25.2260   94.5470 C.ar  194  TRP194      0.0001
     76  CH2       18.8820   24.0140   95.1620 C.ar  194  TRP194      0.0015
     77  N         19.7720   28.9180   95.3930 N.3   199  TRP199     -0.1241
     78  CA        20.7080   29.8240   94.7200 C.3   199  TRP199      0.1605
     79  C         20.7660   31.1470   95.4290 C.2   199  TRP199      0.2264
     80  O         19.7320   31.6540   95.8590 O.2   199  TRP199     -0.2867
     81  CB        20.2780   30.0470   93.2660 C.3   199  TRP199      0.0550
     82  CG        20.5600   28.8790   92.4310 C.ar  199  TRP199      0.0003
     83  CD1       19.6730   27.9230   92.0300 C.ar  199  TRP199      0.0946
     84  CD2       21.8290   28.4890   91.9080 C.ar  199  TRP199      0.0152
     85  NE1       20.3140   26.9650   91.2890 N.ar  199  TRP199     -0.2442
     86  CE2       21.6420   27.2800   91.2000 C.ar  199  TRP199      0.0810
     87  CE3       23.1120   29.0430   91.9620 C.ar  199  TRP199      0.0012
     88  CZ2       22.6820   26.6260   90.5530 C.ar  199  TRP199      0.0191
     89  CZ3       24.1370   28.3850   91.3320 C.ar  199  TRP199      0.0001
     90  CH2       23.9150   27.1980   90.6140 C.ar  199  TRP199      0.0015
@<TRIPOS>BOND
     1    28    29    2
     2    28    27    1
     3    26    27    1
     4    18    17    2
     5    27    30    1
     6    17    16    1
     7    35    36    1
     8    38    37    2
     9    37    36    1
    10    16    15    1
    11    16    19    1
    12    36    39    1
    13    42    43    1
    14    30    31    1
    15    49    48    2
    16    31    32    1
    17    45    44    2
    18    39    41    1
    19    39    40    1
    20    19    20    1
    21    43    44    1
    22    48    47    1
    23    44    46   am
    24    46    47    1
    25    32    33   ar
    26    32    34   ar
    27    20    21    1
    28    21    22    1
    29    47    50    1
    30    24    23    1
    31    22    23    2
    32     1     2    1
    33    23    25    1
    34     4     3    2
    35     2     3    1
    36     2     5    1
    37    88    90   ar
    38    88    86   ar
    39    90    89   ar
    40    13    11   ar
    41    13    14   ar
    42    11     8   ar
    43    61    60    1
    44    86    85   ar
    45    86    84   ar
    46    85    83   ar
    47    89    87   ar
    48    62    60    1
    49     5     6    1
    50    59    60    1
    51    59    56    1
    52    14    12   ar
    53    84    87   ar
    54    84    82   ar
    55    83    82   ar
    56     8     6   ar
    57     8    10   ar
    58     6     7   ar
    59    82    81    1
    60    56    57    1
    61    56    55    1
    62    57    58    2
    63    12    10   ar
    64    10     9   ar
    65    81    78    1
    66     7     9   ar
    67    67    68    1
    68    67    64    1
    69    73    75   ar
    70    73    70   ar
    71    75    76   ar
    72    78    77    1
    73    78    79    1
    74    63    64    1
    75    70    68   ar
    76    70    72   ar
    77    68    69   ar
    78    76    74   ar
    79    52    51    1
    80    52    53    1
    81    79    80    2
    82    64    65    1
    83    72    74   ar
    84    72    71   ar
    85    69    71   ar
    86    53    54    2
    87    66    65    2
