@<TRIPOS>MOLECULE
tmp/1ofzB04.pdb
 99 95 0 0 0
SMALL
GASTEIGER

@<TRIPOS>ATOM
      1  N         39.6720   23.6020   92.9270 N.3   219  TRP219     -0.1241
      2  CA        40.3210   22.3730   93.3980 C.3   219  TRP219      0.1605
      3  C         40.4710   22.3950   94.9030 C.2   219  TRP219      0.2264
      4  O         40.5960   23.4450   95.5330 O.2   219  TRP219     -0.2867
      5  CB        41.7090   22.1710   92.7840 C.3   219  TRP219      0.0550
      6  CG        42.7550   23.1410   93.2070 C.ar  219  TRP219      0.0003
      7  CD1       43.6950   22.9850   94.2110 C.ar  219  TRP219      0.0946
      8  CD2       43.0210   24.4200   92.6200 C.ar  219  TRP219      0.0152
      9  NE1       44.4880   24.1030   94.2890 N.ar  219  TRP219     -0.2442
     10  CE2       44.1090   24.9920   93.3120 C.ar  219  TRP219      0.0810
     11  CE3       42.4560   25.1380   91.5600 C.ar  219  TRP219      0.0012
     12  CZ2       44.6140   26.2680   93.0000 C.ar  219  TRP219      0.0191
     13  CZ3       42.9520   26.3990   91.2550 C.ar  219  TRP219      0.0001
     14  CH2       44.0350   26.9430   91.9650 C.ar  219  TRP219      0.0015
     15  N         39.5580   29.7190   90.8280 N.3   226  ARG226     -0.1245
     16  CA        40.1320   30.7060   89.9140 C.3   226  ARG226      0.1563
     17  C         39.0970   31.0410   88.8600 C.2   226  ARG226      0.2260
     18  O         38.4700   30.1500   88.2580 O.2   226  ARG226     -0.2867
     19  CB        41.4230   30.2250   89.2500 C.3   226  ARG226      0.0307
     20  CG        42.5240   29.8190   90.2230 C.3   226  ARG226      0.0489
     21  CD        43.0960   30.9690   91.0200 C.3   226  ARG226      0.2205
     22  NE        44.2280   30.5960   91.8830 N.pl3 226  ARG226     -0.0865
     23  CZ        44.1270   30.1910   93.1490 C.cat 226  ARG226      0.5346
     24  NH1       42.9470   30.1030   93.7590 N.pl3 226  ARG226      0.1354
     25  NH2       45.2310   29.8840   93.7980 N.pl3 226  ARG226      0.1354
     26  N         42.7920   37.0540   86.0310 N.3   238  GLU238     -0.1245
     27  CA        42.4880   35.9890   86.9830 C.3   238  GLU238      0.1567
     28  C         42.1160   36.6220   88.3220 C.2   238  GLU238      0.2260
     29  O         42.8260   37.4870   88.8040 O.2   238  GLU238     -0.2867
     30  CB        43.6930   35.1070   87.1990 C.3   238  GLU238      0.0388
     31  CG        43.4500   33.9240   88.1310 C.3   238  GLU238      0.1160
     32  CD        44.7240   33.3150   88.6140 C.2   238  GLU238      0.3649
     33  OE1       45.0030   32.1590   88.2340 O.co2 238  GLU238     -0.2457
     34  OE2       45.4380   33.9830   89.3850 O.co2 238  GLU238     -0.2457
     35  N         41.4010   35.0930   92.2270 N.3   240  ALA240     -0.1245
     36  CA        41.7550   33.8990   92.9910 C.3   240  ALA240      0.1562
     37  C         41.1150   33.9420   94.3650 C.2   240  ALA240      0.2260
     38  O         41.1990   34.9590   95.0790 O.2   240  ALA240     -0.2867
     39  CB        43.2570   33.7900   93.1250 C.3   240  ALA240      0.0290
     40  N         41.2080   37.7650   96.0720 N.3   246  ASN246     -0.1240
     41  CA        42.2310   38.7700   95.8250 C.3   246  ASN246      0.1653
     42  C         41.7120   39.8870   94.9250 C.2   246  ASN246      0.2266
     43  O         40.5790   39.8540   94.4270 O.2   246  ASN246     -0.2867
     44  CB        43.5190   38.1340   95.2930 C.3   246  ASN246      0.1155
     45  CG        43.4230   37.6150   93.8570 C.2   246  ASN246      0.2627
     46  OD1       42.3570   37.5450   93.2620 O.2   246  ASN246     -0.2716
     47  ND2       44.5810   37.2440   93.3000 N.am  246  ASN246     -0.0877
     48  N         47.4050   38.1300   83.7260 N.3   251  ILE251     -0.1245
     49  CA        48.3800   37.1160   83.3870 C.3   251  ILE251      0.1561
     50  C         48.9150   37.4810   82.0010 C.2   251  ILE251      0.2260
     51  O         48.1760   37.4800   81.0290 O.2   251  ILE251     -0.2867
     52  CB        47.6930   35.7400   83.3660 C.3   251  ILE251      0.0252
     53  CG1       47.1920   35.3410   84.7730 C.3   251  ILE251      0.0019
     54  CG2       48.5840   34.6710   82.7980 C.3   251  ILE251      0.0019
     55  CD1       46.2700   34.1260   84.7380 C.3   251  ILE251      0.0001
     56  N         48.9790   22.3820   91.8350 N.3   274  ILE274     -0.1245
     57  CA        47.9320   22.4920   90.8170 C.3   274  ILE274      0.1561
     58  C         48.5960   22.7940   89.4790 C.2   274  ILE274      0.2260
     59  O         49.6070   23.4570   89.4280 O.2   274  ILE274     -0.2867
     60  CB        46.9590   23.6190   91.2110 C.3   274  ILE274      0.0252
     61  CG1       45.7220   23.6420   90.3080 C.3   274  ILE274      0.0019
     62  CG2       47.6750   24.9980   91.2020 C.3   274  ILE274      0.0019
     63  CD1       44.8300   22.4750   90.4900 C.3   274  ILE274      0.0001
     64  N         47.3770   24.3070   85.7030 N.3   276  ILE276     -0.1245
     65  CA        46.2650   25.0090   85.0450 C.3   276  ILE276      0.1561
     66  C         46.6500   25.3290   83.6120 C.2   276  ILE276      0.2260
     67  O         47.7780   25.6700   83.3540 O.2   276  ILE276     -0.2867
     68  CB        45.9390   26.3570   85.7720 C.3   276  ILE276      0.0252
     69  CG1       45.6280   26.1020   87.2440 C.3   276  ILE276      0.0019
     70  CG2       44.7210   27.0480   85.0880 C.3   276  ILE276      0.0019
     71  CD1       45.6670   27.3520   88.0840 C.3   276  ILE276      0.0001
     72  N         50.1090   27.3520   84.1160 N.3   292  TRP292     -0.1241
     73  CA        50.6510   27.5950   85.4360 C.3   292  TRP292      0.1605
     74  C         51.4880   26.3590   85.7940 C.2   292  TRP292      0.2264
     75  O         50.9580   25.2710   85.8130 O.2   292  TRP292     -0.2867
     76  CB        49.5480   27.7740   86.4610 C.3   292  TRP292      0.0550
     77  CG        50.1090   27.7360   87.8330 C.ar  292  TRP292      0.0003
     78  CD1       50.1960   26.6480   88.6680 C.ar  292  TRP292      0.0946
     79  CD2       50.7030   28.8150   88.5090 C.ar  292  TRP292      0.0152
     80  NE1       50.8080   27.0100   89.8390 N.ar  292  TRP292     -0.2442
     81  CE2       51.1450   28.3360   89.7640 C.ar  292  TRP292      0.0810
     82  CE3       50.9480   30.1500   88.1770 C.ar  292  TRP292      0.0012
     83  CZ2       51.7750   29.1490   90.6980 C.ar  292  TRP292      0.0191
     84  CZ3       51.5630   30.9540   89.1060 C.ar  292  TRP292      0.0001
     85  CH2       51.9700   30.4560   90.3590 C.ar  292  TRP292      0.0015
     86  N         53.3260   31.5730   85.5780 N.3   298  TRP298     -0.1241
     87  CA        52.6340   31.5390   84.3040 C.3   298  TRP298      0.1605
     88  C         53.5490   31.7490   83.1110 C.2   298  TRP298      0.2264
     89  O         54.4640   32.5860   83.1250 O.2   298  TRP298     -0.2867
     90  CB        51.5780   32.6420   84.2790 C.3   298  TRP298      0.0550
     91  CG        50.4000   32.4410   85.1710 C.ar  298  TRP298      0.0003
     92  CD1       50.1440   33.0430   86.3610 C.ar  298  TRP298      0.0946
     93  CD2       49.2880   31.5860   84.9110 C.ar  298  TRP298      0.0152
     94  NE1       48.9380   32.6150   86.8630 N.ar  298  TRP298     -0.2442
     95  CE2       48.3960   31.7110   85.9850 C.ar  298  TRP298      0.0810
     96  CE3       48.9600   30.7060   83.8670 C.ar  298  TRP298      0.0012
     97  CZ2       47.1980   30.9880   86.0550 C.ar  298  TRP298      0.0191
     98  CZ3       47.7630   30.0280   83.9250 C.ar  298  TRP298      0.0001
     99  CH2       46.8940   30.1750   85.0010 C.ar  298  TRP298      0.0015
@<TRIPOS>BOND
     1    51    50    2
     2    50    49    1
     3    54    52    1
     4    88    89    2
     5    88    87    1
     6    67    66    2
     7    52    49    1
     8    52    53    1
     9    49    48    1
    10    66    65    1
    11    96    98   ar
    12    96    93   ar
    13    98    99   ar
    14    72    73    1
    15    90    87    1
    16    90    91    1
    17    87    86    1
    18    55    53    1
    19    93    91   ar
    20    93    95   ar
    21    99    97   ar
    22    65    64    1
    23    65    68    1
    24    70    68    1
    25    91    92   ar
    26    73    74    1
    27    73    76    1
    28    68    69    1
    29    74    75    2
    30    95    97   ar
    31    95    94   ar
    32    26    27    1
    33    92    94   ar
    34    76    77    1
    35    27    30    1
    36    27    28    1
    37    30    31    1
    38    69    71    1
    39    77    79   ar
    40    77    78   ar
    41    31    32    1
    42    82    79   ar
    43    82    84   ar
    44    33    32   ar
    45    18    17    2
    46    28    29    2
    47    79    81   ar
    48    32    34   ar
    49    78    80   ar
    50    17    16    1
    51    84    85   ar
    52    19    16    1
    53    19    20    1
    54    59    58    2
    55    58    57    1
    56    81    80   ar
    57    81    83   ar
    58    16    15    1
    59    20    21    1
    60    61    63    1
    61    61    60    1
    62    85    83   ar
    63    57    60    1
    64    57    56    1
    65    21    22    1
    66    62    60    1
    67    13    11   ar
    68    13    14   ar
    69    11     8   ar
    70    22    23    2
    71    14    12   ar
    72    35    36    1
    73     8     6   ar
    74     8    10   ar
    75     5     6    1
    76     5     2    1
    77     1     2    1
    78    36    39    1
    79    36    37    1
    80    12    10   ar
    81    23    24    1
    82    23    25    1
    83     6     7   ar
    84    46    45    2
    85    47    45   am
    86    10     9   ar
    87     2     3    1
    88    45    44    1
    89     7     9   ar
    90    37    38    2
    91    43    42    2
    92     3     4    2
    93    42    41    1
    94    44    41    1
    95    41    40    1
