@<TRIPOS>MOLECULE
tmp/1og1A00.pdb
 237 230 0 0 0
SMALL
GASTEIGER

@<TRIPOS>ATOM
      1  N         68.0290   28.7520   19.6120 N.3     2  LEU2       -0.1231
      2  CA        67.3240   29.8960   20.1740 C.3     2  LEU2        0.1693
      3  C         67.9450   30.0920   21.5660 C.2     2  LEU2        0.2591
      4  O         68.3920   29.1390   22.1800 O.2     2  LEU2       -0.2718
      5  CB        65.8310   29.5780   20.2990 C.3     2  LEU2        0.0284
      6  CG        65.1010   29.2970   18.9630 C.3     2  LEU2        0.0019
      7  CD1       63.6460   28.8220   19.2440 C.3     2  LEU2        0.0001
      8  CD2       65.1100   30.5610   18.1010 C.3     2  LEU2        0.0001
      9  N         67.9440   31.3150   22.0640 N.am    3  MET3       -0.1979
     10  CA        68.5750   31.6170   23.3270 C.3     3  MET3        0.1605
     11  C         67.5930   31.4690   24.4770 C.2     3  MET3        0.2287
     12  O         66.4280   31.8140   24.3440 O.2     3  MET3       -0.2864
     13  CB        69.1130   33.0650   23.3210 C.3     3  MET3        0.0413
     14  CG        70.1210   33.4370   22.2150 C.3     3  MET3        0.0598
     15  SD        71.5310   32.3500   22.0730 S.3     3  MET3       -0.1393
     16  CE        71.0630   31.2970   20.7490 C.3     3  MET3        0.0692
     17  N         43.9630   29.4290   22.7510 N.3    75  TYR75      -0.1227
     18  CA        45.4040   29.2680   22.8690 C.3    75  TYR75       0.1736
     19  C         45.8400   27.8320   22.5620 C.2    75  TYR75       0.2596
     20  O         46.8610   27.6290   21.9210 O.2    75  TYR75      -0.2718
     21  CB        45.8560   29.6570   24.2780 C.3    75  TYR75       0.0548
     22  CG        47.3300   29.4710   24.4150 C.ar   75  TYR75      -0.0200
     23  CD1       48.2080   30.4730   24.0290 C.ar   75  TYR75      -0.0009
     24  CD2       47.8520   28.2460   24.8110 C.ar   75  TYR75      -0.0009
     25  CE1       49.5680   30.2510   24.0290 C.ar   75  TYR75       0.0417
     26  CE2       49.2140   28.0180   24.8100 C.ar   75  TYR75       0.0417
     27  CZ        50.0580   29.0210   24.4160 C.ar   75  TYR75       0.1957
     28  OH        51.4110   28.7770   24.3820 O.3    75  TYR75      -0.2866
     29  N         45.0650   26.8370   23.0160 N.am   76  THR76      -0.1939
     30  CA        45.4120   25.4380   22.7690 C.3    76  THR76       0.2028
     31  C         45.1590   25.1200   21.3160 C.2    76  THR76       0.2642
     32  O         45.4750   24.0260   20.8550 O.2    76  THR76      -0.2714
     33  CB        44.5790   24.4360   23.5990 C.3    76  THR76       0.1808
     34  OG1       43.2110   24.4880   23.1720 O.3    76  THR76      -0.2208
     35  CG2       44.6940   24.7670   25.0980 C.3    76  THR76       0.0379
     36  N         44.5540   26.0800   20.6330 N.am   77  GLY77      -0.1954
     37  CA        44.2840   25.9510   19.2270 C.3    77  GLY77       0.1869
     38  C         45.4520   26.5540   18.4570 C.2    77  GLY77       0.2309
     39  O         46.4660   27.0590   19.0110 O.2    77  GLY77      -0.2863
     40  N         48.3710   29.7740   18.9910 N.3    80  ALA80      -0.1231
     41  CA        49.4790   29.9230   19.9210 C.3    80  ALA80       0.1694
     42  C         50.8240   30.3900   19.3450 C.2    80  ALA80       0.2591
     43  O         51.5230   31.2300   19.9400 O.2    80  ALA80      -0.2718
     44  CB        49.6790   28.6450   20.6930 C.3    80  ALA80       0.0304
     45  N         51.1920   29.8450   18.1990 N.am   81  VAL81      -0.1980
     46  CA        52.4880   30.1850   17.5940 C.3    81  VAL81       0.1595
     47  C         52.6000   31.6610   17.2670 C.2    81  VAL81       0.2287
     48  O         53.5700   32.3170   17.6610 O.2    81  VAL81      -0.2864
     49  CB        52.7380   29.2870   16.3350 C.3    81  VAL81       0.0276
     50  CG1       53.8700   29.8560   15.4690 C.3    81  VAL81       0.0022
     51  CG2       53.0900   27.8860   16.8060 C.3    81  VAL81       0.0022
     52  N         52.5010   33.7860   20.6180 N.3    84  ASN84      -0.1240
     53  CA        53.7470   33.6890   21.3690 C.3    84  ASN84       0.1653
     54  C         54.8710   34.5080   20.7300 C.2    84  ASN84       0.2266
     55  O         55.6950   35.0930   21.4260 O.2    84  ASN84      -0.2867
     56  CB        54.1680   32.2290   21.4750 C.3    84  ASN84       0.1155
     57  CG        53.3670   31.4800   22.5150 C.2    84  ASN84       0.2627
     58  OD1       52.6820   32.0880   23.3320 O.2    84  ASN84      -0.2716
     59  ND2       53.4420   30.1690   22.4880 N.am   84  ASN84      -0.0877
     60  N         56.9680   37.4340   22.4870 N.3    88  ARG88      -0.1231
     61  CA        58.4240   37.3150   22.5420 C.3    88  ARG88       0.1694
     62  C         59.1040   38.5310   21.8960 C.2    88  ARG88       0.2591
     63  O         60.0420   39.1130   22.4460 O.2    88  ARG88      -0.2718
     64  CB        58.8250   36.0200   21.8110 C.3    88  ARG88       0.0321
     65  CG        60.3110   35.7290   21.6880 C.3    88  ARG88       0.0489
     66  CD        60.5740   34.7820   20.5120 C.3    88  ARG88       0.2205
     67  NE        59.5760   33.7420   20.5230 N.pl3  88  ARG88      -0.0865
     68  CZ        58.9310   33.2870   19.4620 C.cat  88  ARG88       0.5346
     69  NH1       59.1850   33.7630   18.2510 N.pl3  88  ARG88       0.1354
     70  NH2       57.9750   32.3980   19.6460 N.pl3  88  ARG88       0.1354
     71  N         58.6260   38.9240   20.7250 N.am   89  GLU89      -0.1979
     72  CA        59.2200   40.0440   20.0070 C.3    89  GLU89       0.1602
     73  C         58.5590   41.3880   20.3120 C.2    89  GLU89       0.2287
     74  O         58.6920   42.3300   19.5260 O.2    89  GLU89      -0.2864
     75  CB        59.1500   39.7650   18.4980 C.3    89  GLU89       0.0415
     76  CG        59.7510   38.4220   18.1330 C.3    89  GLU89       0.1163
     77  CD        59.6590   38.1050   16.6500 C.2    89  GLU89       0.3649
     78  OE1       59.0130   38.8540   15.8920 O.co2  89  GLU89      -0.2457
     79  OE2       60.2340   37.0810   16.2410 O.co2  89  GLU89      -0.2457
     80  N         57.2890   18.4420   31.5060 N.3   122  TYR122     -0.1227
     81  CA        58.2980   18.2320   30.4830 C.3   122  TYR122      0.1736
     82  C         57.8140   18.9550   29.2630 C.2   122  TYR122      0.2595
     83  O         56.6090   18.9760   28.9780 O.2   122  TYR122     -0.2718
     84  CB        58.4380   16.7620   30.1360 C.3   122  TYR122      0.0548
     85  CG        58.6770   15.8810   31.3210 C.ar  122  TYR122     -0.0200
     86  CD1       57.6080   15.3890   32.0700 C.ar  122  TYR122     -0.0009
     87  CD2       59.9730   15.6040   31.7480 C.ar  122  TYR122     -0.0009
     88  CE1       57.8240   14.6480   33.2130 C.ar  122  TYR122      0.0417
     89  CE2       60.2010   14.8710   32.9050 C.ar  122  TYR122      0.0417
     90  CZ        59.1190   14.4000   33.6320 C.ar  122  TYR122      0.1957
     91  OH        59.3310   13.7350   34.8160 O.3   122  TYR122     -0.2866
     92  N         58.7440   19.5460   28.5380 N.am  123  ARG123     -0.1966
     93  CA        58.3940   20.2710   27.3290 C.3   123  ARG123      0.1729
     94  C         59.3930   19.8470   26.2700 C.2   123  ARG123      0.2617
     95  O         60.6170   19.8930   26.4990 O.2   123  ARG123     -0.2715
     96  CB        58.4560   21.7860   27.5740 C.3   123  ARG123      0.0348
     97  CG        58.3400   22.6470   26.2950 C.3   123  ARG123      0.0492
     98  CD        58.5040   24.1400   26.5670 C.3   123  ARG123      0.2205
     99  NE        58.5960   24.9210   25.3250 N.pl3 123  ARG123     -0.0865
    100  CZ        57.5910   25.1050   24.4750 C.cat 123  ARG123      0.5346
    101  NH1       56.3730   24.5850   24.7150 N.pl3 123  ARG123      0.1354
    102  NH2       57.8210   25.7580   23.3390 N.pl3 123  ARG123      0.1354
    103  N         58.8750   19.3970   25.1270 N.am  124  GLY124     -0.1940
    104  CA        59.7440   18.9990   24.0370 C.3   124  GLY124      0.2014
    105  C         59.7510   20.0730   22.9590 C.2   124  GLY124      0.2640
    106  O         58.7530   20.7870   22.8070 O.2   124  GLY124     -0.2714
    107  N         60.8790   20.2440   22.2540 N.am  125  THR125     -0.1936
    108  CA        60.9390   21.2250   21.1680 C.3   125  THR125      0.2028
    109  C         61.7270   20.6140   20.0170 C.2   125  THR125      0.2642
    110  O         62.4300   19.6220   20.1960 O.2   125  THR125     -0.2714
    111  CB        61.6620   22.5780   21.5630 C.3   125  THR125      0.1808
    112  OG1       63.0680   22.3440   21.7030 O.3   125  THR125     -0.2208
    113  CG2       61.1120   23.1510   22.8590 C.3   125  THR125      0.0379
    114  N         61.6100   21.1890   18.8250 N.am  126  LYS126     -0.1963
    115  CA        62.3860   20.6540   17.7120 C.3   126  LYS126      0.1728
    116  C         63.5100   21.6380   17.3920 C.2   126  LYS126      0.2616
    117  O         64.3140   21.4040   16.5150 O.2   126  LYS126     -0.2715
    118  CB        61.4950   20.3910   16.4950 C.3   126  LYS126      0.0311
    119  CG        60.5230   19.2650   16.7610 C.3   126  LYS126      0.0038
    120  CD        59.7390   18.8420   15.5190 C.3   126  LYS126      0.0206
    121  CE        58.7820   17.7170   15.8960 C.3   126  LYS126      0.1093
    122  NZ        58.1630   17.0410   14.7300 N.3   126  LYS126     -0.1314
    123  N         63.5630   22.7330   18.1360 N.am  127  THR127     -0.1951
    124  CA        64.6060   23.7320   17.9500 C.3   127  THR127      0.1897
    125  C         65.4760   23.7060   19.2060 C.2   127  THR127      0.2313
    126  O         64.9620   23.7050   20.3370 O.2   127  THR127     -0.2863
    127  CB        64.0080   25.1200   17.7770 C.3   127  THR127      0.1794
    128  OG1       63.1240   25.0990   16.6550 O.3   127  THR127     -0.2208
    129  CG2       65.1010   26.1600   17.5350 C.3   127  THR127      0.0378
    130  N         67.7070   24.8460   22.2200 N.3   129  PHE129     -0.1241
    131  CA        67.7620   26.0300   23.0550 C.3   129  PHE129      0.1605
    132  C         69.1220   26.0870   23.7240 C.2   129  PHE129      0.2264
    133  O         69.5800   25.0820   24.2190 O.2   129  PHE129     -0.2867
    134  CB        66.6620   26.0040   24.1280 C.3   129  PHE129      0.0534
    135  CG        65.3630   26.5790   23.6470 C.ar  129  PHE129     -0.0203
    136  CD1       64.4730   25.8050   22.8890 C.ar  129  PHE129     -0.0042
    137  CD2       65.0590   27.9240   23.8710 C.ar  129  PHE129     -0.0042
    138  CE1       63.2970   26.3880   22.3570 C.ar  129  PHE129     -0.0003
    139  CE2       63.8830   28.5080   23.3420 C.ar  129  PHE129     -0.0003
    140  CZ        63.0090   27.7350   22.5810 C.ar  129  PHE129     -0.0000
    141  N         60.5280   32.0710   30.3320 N.3   139  PHE139     -0.1241
    142  CA        60.2310   31.7270   28.9500 C.3   139  PHE139      0.1605
    143  C         59.8140   32.9650   28.1680 C.2   139  PHE139      0.2264
    144  O         60.0200   33.0140   26.9490 O.2   139  PHE139     -0.2867
    145  CB        59.1530   30.6660   28.9040 C.3   139  PHE139      0.0534
    146  CG        59.6880   29.3000   29.1250 C.ar  139  PHE139     -0.0203
    147  CD1       60.4850   28.6820   28.1340 C.ar  139  PHE139     -0.0042
    148  CD2       59.4290   28.6160   30.3150 C.ar  139  PHE139     -0.0042
    149  CE1       61.0100   27.3950   28.3370 C.ar  139  PHE139     -0.0003
    150  CE2       59.9420   27.3420   30.5230 C.ar  139  PHE139     -0.0003
    151  CZ        60.7370   26.7240   29.5340 C.ar  139  PHE139     -0.0000
    152  N         57.2280   34.0550   26.8180 N.3   141  GLN141     -0.1231
    153  CA        55.9380   33.6980   26.2500 C.3   141  GLN141      0.1698
    154  C         55.2470   32.6070   27.0600 C.2   141  GLN141      0.2592
    155  O         55.8860   31.8840   27.8390 O.2   141  GLN141     -0.2718
    156  CB        56.1300   33.1890   24.8230 C.3   141  GLN141      0.0381
    157  CG        56.9970   31.9360   24.6850 C.3   141  GLN141      0.0905
    158  CD        57.4520   31.7340   23.2330 C.2   141  GLN141      0.2608
    159  OE1       57.9970   32.6400   22.6280 O.2   141  GLN141     -0.2717
    160  NE2       57.2230   30.5540   22.6870 N.am  141  GLN141     -0.0878
    161  N         53.9360   32.4710   26.8490 N.am  142  PHE142     -0.1962
    162  CA        53.2100   31.4120   27.5210 C.3   142  PHE142      0.1771
    163  C         53.8350   30.1410   26.9820 C.2   142  PHE142      0.2620
    164  O         54.0940   30.0350   25.7940 O.2   142  PHE142     -0.2715
    165  CB        51.7340   31.5110   27.1890 C.3   142  PHE142      0.0574
    166  CG        51.0310   32.5480   27.9900 C.ar  142  PHE142     -0.0200
    167  CD1       50.9870   33.8690   27.5650 C.ar  142  PHE142     -0.0042
    168  CD2       50.4030   32.2030   29.1810 C.ar  142  PHE142     -0.0042
    169  CE1       50.3190   34.8250   28.3130 C.ar  142  PHE142     -0.0003
    170  CE2       49.7260   33.1710   29.9400 C.ar  142  PHE142     -0.0003
    171  CZ        49.6840   34.4720   29.5020 C.ar  142  PHE142     -0.0000
    172  N         54.0520   29.1800   27.8660 N.am  143  THR143     -0.1937
    173  CA        54.7540   27.9570   27.5100 C.3   143  THR143      0.2028
    174  C         54.0530   26.6700   27.8690 C.2   143  THR143      0.2643
    175  O         53.7710   26.3900   29.0440 O.2   143  THR143     -0.2714
    176  CB        56.1480   27.9830   28.1740 C.3   143  THR143      0.1808
    177  OG1       56.8200   29.1780   27.7760 O.3   143  THR143     -0.2208
    178  CG2       56.9840   26.7820   27.7700 C.3   143  THR143      0.0379
    179  N         53.7680   25.8790   26.8370 N.am  144  SER144     -0.1935
    180  CA        53.0930   24.6280   26.9990 C.3   144  SER144      0.2055
    181  C         54.0680   23.5540   27.4120 C.2   144  SER144      0.2644
    182  O         55.2240   23.5390   26.9690 O.2   144  SER144     -0.2714
    183  CB        52.4250   24.2070   25.6750 C.3   144  SER144      0.2130
    184  OG        51.5060   25.1930   25.2760 O.3   144  SER144     -0.2179
    185  N         53.5890   22.6390   28.2400 N.am  145  SER145     -0.1935
    186  CA        54.4050   21.5380   28.7200 C.3   145  SER145      0.2055
    187  C         53.4440   20.4160   28.9830 C.2   145  SER145      0.2643
    188  O         52.2300   20.6000   28.8540 O.2   145  SER145     -0.2714
    189  CB        55.1020   21.9190   30.0470 C.3   145  SER145      0.2130
    190  OG        54.1450   22.1780   31.0760 O.3   145  SER145     -0.2179
    191  N         53.9620   19.2430   29.3430 N.am  146  SER146     -0.1949
    192  CA        53.0790   18.1570   29.6950 C.3   146  SER146      0.1924
    193  C         53.4960   17.4390   30.9920 C.2   146  SER146      0.2314
    194  O         54.6820   17.3530   31.3360 O.2   146  SER146     -0.2863
    195  CB        52.9600   17.1300   28.5480 C.3   146  SER146      0.2116
    196  OG        52.3140   15.9510   29.0160 O.3   146  SER146     -0.2180
    197  N         54.6730   12.2140   26.2400 N.3   151  VAL151     -0.1231
    198  CA        54.0650   13.2130   25.3770 C.3   151  VAL151      0.1692
    199  C         55.1070   14.2450   24.9290 C.2   151  VAL151      0.2591
    200  O         55.1950   14.5470   23.7390 O.2   151  VAL151     -0.2718
    201  CB        52.9130   13.9430   26.1100 C.3   151  VAL151      0.0266
    202  CG1       52.5110   15.2420   25.3730 C.3   151  VAL151      0.0020
    203  CG2       51.7220   13.0250   26.1960 C.3   151  VAL151      0.0020
    204  N         55.8880   14.7850   25.8740 N.am  152  ALA152     -0.1980
    205  CA        56.9010   15.7960   25.5450 C.3   152  ALA152      0.1597
    206  C         57.9510   15.2790   24.5470 C.2   152  ALA152      0.2287
    207  O         58.5100   16.0590   23.7510 O.2   152  ALA152     -0.2864
    208  CB        57.6190   16.2940   26.8580 C.3   152  ALA152      0.0319
    209  N         56.2060   16.8130   19.1710 N.3   157  PHE157     -0.1241
    210  CA        56.8610   18.0070   19.7620 C.3   157  PHE157      0.1605
    211  C         58.3710   18.0270   19.8050 C.2   157  PHE157      0.2264
    212  O         58.9880   19.1040   19.9120 O.2   157  PHE157     -0.2867
    213  CB        56.4150   18.1630   21.2180 C.3   157  PHE157      0.0534
    214  CG        54.9350   18.1290   21.4030 C.ar  157  PHE157     -0.0203
    215  CD1       54.1270   19.0550   20.7560 C.ar  157  PHE157     -0.0042
    216  CD2       54.3460   17.1740   22.2080 C.ar  157  PHE157     -0.0042
    217  CE1       52.7390   19.0320   20.9070 C.ar  157  PHE157     -0.0003
    218  CE2       52.9570   17.1390   22.3680 C.ar  157  PHE157     -0.0003
    219  CZ        52.1550   18.0690   21.7170 C.ar  157  PHE157     -0.0000
    220  N         47.0410   15.4950   25.8060 N.3   184  GLN184     -0.1245
    221  CA        48.4000   16.0250   25.8620 C.3   184  GLN184      0.1566
    222  C         48.7630   16.3230   27.3220 C.2   184  GLN184      0.2260
    223  O         49.8810   16.7290   27.6130 O.2   184  GLN184     -0.2867
    224  CB        48.5340   17.2910   24.9920 C.3   184  GLN184      0.0367
    225  CG        48.4590   17.0240   23.4760 C.3   184  GLN184      0.0905
    226  CD        48.5000   18.2970   22.6470 C.2   184  GLN184      0.2608
    227  OE1       48.1220   19.3800   23.1150 O.2   184  GLN184     -0.2717
    228  NE2       48.9380   18.1780   21.3940 N.am  184  GLN184     -0.0878
    229  N         48.3640   18.6930   29.1430 N.3   186  GLU186     -0.1245
    230  CA        49.0300   19.9710   29.1720 C.3   186  GLU186      0.1567
    231  C         48.9680   20.8220   30.4410 C.2   186  GLU186      0.2260
    232  O         47.9230   20.9260   31.0920 O.2   186  GLU186     -0.2867
    233  CB        48.5570   20.8220   27.9820 C.3   186  GLU186      0.0388
    234  CG        49.0700   22.2580   28.0060 C.3   186  GLU186      0.1160
    235  CD        48.9850   22.9730   26.6460 C.2   186  GLU186      0.3649
    236  OE1       48.1290   22.6090   25.8270 O.co2 186  GLU186     -0.2457
    237  OE2       49.7650   23.9270   26.4030 O.co2 186  GLU186     -0.2457
@<TRIPOS>BOND
     1   122   121    1
     2    50    49    1
     3   120   121    1
     4   120   119    1
     5    78    77   ar
     6    79    77   ar
     7    49    51    1
     8    49    46    1
     9   118   119    1
    10   118   115    1
    11   117   116    2
    12    77    76    1
    13   128   127    1
    14    47    46    1
    15    47    48    2
    16   116   115    1
    17   116   123   am
    18   129   127    1
    19    46    45    1
    20   115   114    1
    21   127   124    1
    22   124   123    1
    23   124   125    1
    24     8     6    1
    25    76    75    1
    26    45    42   am
    27    69    68    1
    28    38    39    2
    29    38    37    1
    30    75    72    1
    31   114   109   am
    32     6     7    1
    33     6     5    1
    34    40    41    1
    35   209   210    1
    36   125   126    2
    37    37    36    1
    38    42    41    1
    39    42    43    2
    40    68    70    1
    41    68    67    2
    42    74    73    2
    43     1     2    1
    44   210   211    1
    45   210   213    1
    46   211   212    2
    47    41    44    1
    48    72    73    1
    49    72    71    1
    50   109   110    2
    51   109   108    1
    52     2     5    1
    53     2     3    1
    54    66    67    1
    55    66    65    1
    56    52    53    1
    57    36    31   am
    58    71    62   am
    59    54    53    1
    60    54    55    2
    61    16    15    1
    62   215   217   ar
    63   215   214   ar
    64    32    31    2
    65   217   219   ar
    66   108   111    1
    67   108   107    1
    68   213   214    1
    69    31    30    1
    70    53    56    1
    71   228   226   am
    72   214   216   ar
    73    56    57    1
    74   111   112    1
    75   111   113    1
    76     3     9   am
    77     3     4    2
    78    65    64    1
    79   219   218   ar
    80    64    61    1
    81    62    63    2
    82    62    61    1
    83    20    19    2
    84     9    10    1
    85    15    14    1
    86   216   218   ar
    87    14    13    1
    88   130   131    1
    89   107   105   am
    90   138   140   ar
    91   138   136   ar
    92    60    61    1
    93    59    57   am
    94    57    58    2
    95    19    18    1
    96    19    29   am
    97   140   139   ar
    98   159   158    2
    99   226   227    2
   100   226   225    1
   101   160   158   am
   102    17    18    1
   103    30    29    1
   104    30    33    1
   105   106   105    2
   106    18    21    1
   107   136   135   ar
   108   105   104    1
   109   131   132    1
   110   131   134    1
   111    34    33    1
   112   158   157    1
   113    13    10    1
   114    10    11    1
   115   102   100    1
   116   139   137   ar
   117   225   224    1
   118    33    35    1
   119   135   137   ar
   120   135   134    1
   121   132   133    2
   122   200   199    2
   123   207   206    2
   124    23    25   ar
   125    23    22   ar
   126    25    27   ar
   127   104   103    1
   128    21    22    1
   129    12    11    2
   130    28    27    1
   131    22    24   ar
   132    27    26   ar
   133   100   101    1
   134   100    99    2
   135   206   205    1
   136   157   156    1
   137    26    24   ar
   138   156   153    1
   139   199   198    1
   140   199   204   am
   141   224   221    1
   142   103    94   am
   143   184   183    1
   144    99    98    1
   145   202   201    1
   146   198   201    1
   147   198   197    1
   148   205   204    1
   149   205   208    1
   150   183   180    1
   151   164   163    2
   152   220   221    1
   153   236   235   ar
   154   221   222    1
   155   201   203    1
   156   153   152    1
   157   153   154    1
   158    94    95    2
   159    94    93    1
   160    97    98    1
   161    97    96    1
   162   237   235   ar
   163   235   234    1
   164   179   180    1
   165   179   174   am
   166   161   154   am
   167   161   162    1
   168   144   143    2
   169   182   181    2
   170   163   162    1
   171   163   172   am
   172   180   181    1
   173   154   155    2
   174   165   162    1
   175   165   166    1
   176   222   223    2
   177    93    96    1
   178    93    92    1
   179   181   185   am
   180   173   172    1
   181   173   174    1
   182   173   176    1
   183   167   166   ar
   184   167   169   ar
   185   178   176    1
   186   177   176    1
   187   174   175    2
   188   233   234    1
   189   233   230    1
   190   166   168   ar
   191   147   149   ar
   192   147   146   ar
   193   143   142    1
   194   185   186    1
   195   169   171   ar
   196   149   151   ar
   197    92    82   am
   198   195   196    1
   199   195   192    1
   200   186   187    1
   201   186   189    1
   202   188   187    2
   203   145   142    1
   204   145   146    1
   205   142   141    1
   206    83    82    2
   207   187   191   am
   208   146   148   ar
   209   229   230    1
   210   230   231    1
   211   168   170   ar
   212    82    81    1
   213   191   192    1
   214   171   170   ar
   215   151   150   ar
   216   192   193    1
   217   189   190    1
   218    84    81    1
   219    84    85    1
   220   148   150   ar
   221   231   232    2
   222    81    80    1
   223   193   194    2
   224    85    87   ar
   225    85    86   ar
   226    87    89   ar
   227    86    88   ar
   228    89    90   ar
   229    88    90   ar
   230    90    91    1
