@<TRIPOS>MOLECULE
tmp/1og3A00.pdb
 230 218 0 0 0
SMALL
GASTEIGER

@<TRIPOS>ATOM
      1  N         13.5660   28.8000   31.9060 N.3     2  LEU2       -0.1231
      2  CA        14.1960   29.9840   31.3310 C.3     2  LEU2        0.1693
      3  C         13.5810   30.2010   29.9600 C.2     2  LEU2        0.2591
      4  O         13.1310   29.2490   29.3200 O.2     2  LEU2       -0.2718
      5  CB        15.7150   29.7800   31.2140 C.3     2  LEU2        0.0284
      6  CG        16.4320   29.4530   32.5450 C.3     2  LEU2        0.0019
      7  CD1       17.8570   28.9640   32.2880 C.3     2  LEU2        0.0001
      8  CD2       16.4380   30.6890   33.4460 C.3     2  LEU2        0.0001
      9  N         13.5490   31.4520   29.5130 N.am    3  MET3       -0.1979
     10  CA        12.9580   31.7780   28.2220 C.3     3  MET3        0.1605
     11  C         13.9600   31.5880   27.0910 C.2     3  MET3        0.2287
     12  O         15.1610   31.7970   27.2760 O.2     3  MET3       -0.2864
     13  CB        12.4530   33.2320   28.2060 C.3     3  MET3        0.0413
     14  CG        11.5360   33.6280   29.3620 C.3     3  MET3        0.0598
     15  SD        10.0940   32.5600   29.6360 S.3     3  MET3       -0.1393
     16  CE        10.7390   31.4250   30.8600 C.3     3  MET3        0.0692
     17  N         37.4850   29.5140   28.6630 N.3    75  TYR75      -0.1227
     18  CA        36.0510   29.3110   28.5380 C.3    75  TYR75       0.1736
     19  C         35.6510   27.8620   28.8300 C.2    75  TYR75       0.2596
     20  O         34.6040   27.6220   29.4360 O.2    75  TYR75      -0.2718
     21  CB        35.5610   29.7190   27.1520 C.3    75  TYR75       0.0548
     22  CG        34.0630   29.6710   27.0660 C.ar   75  TYR75      -0.0200
     23  CD1       33.2810   30.6580   27.6630 C.ar   75  TYR75      -0.0009
     24  CD2       33.4170   28.6020   26.4500 C.ar   75  TYR75      -0.0009
     25  CE1       31.8910   30.5760   27.6470 C.ar   75  TYR75       0.0417
     26  CE2       32.0300   28.5110   26.4330 C.ar   75  TYR75       0.0417
     27  CZ        31.2730   29.4980   27.0280 C.ar   75  TYR75       0.1957
     28  OH        29.8990   29.4120   26.9880 O.3    75  TYR75      -0.2866
     29  N         36.4770   26.9020   28.4050 N.am   76  THR76      -0.1939
     30  CA        36.1930   25.4920   28.6740 C.3    76  THR76       0.2028
     31  C         36.4410   25.2260   30.1570 C.2    76  THR76       0.2642
     32  O         36.2670   24.1050   30.6290 O.2    76  THR76      -0.2714
     33  CB        37.1020   24.5190   27.8650 C.3    76  THR76       0.1808
     34  OG1       38.4690   24.7040   28.2490 O.3    76  THR76      -0.2208
     35  CG2       36.9590   24.7520   26.3710 C.3    76  THR76       0.0379
     36  N         36.8630   26.2680   30.8710 N.am   77  GLY77      -0.1954
     37  CA        37.1310   26.1670   32.2940 C.3    77  GLY77       0.1869
     38  C         35.9500   26.6220   33.1380 C.2    77  GLY77       0.2309
     39  O         34.8470   26.8090   32.6230 O.2    77  GLY77      -0.2863
     40  N         33.4800   30.0770   32.6970 N.3    80  ALA80      -0.1231
     41  CA        32.3790   30.0810   31.7430 C.3    80  ALA80       0.1694
     42  C         31.0110   30.4820   32.2850 C.2    80  ALA80       0.2591
     43  O         30.3000   31.2640   31.6500 O.2    80  ALA80      -0.2718
     44  CB        32.2800   28.7170   31.0650 C.3    80  ALA80       0.0304
     45  N         30.6300   29.9550   33.4440 N.am   81  VAL81      -0.1980
     46  CA        29.3200   30.2800   33.9860 C.3    81  VAL81       0.1595
     47  C         29.1150   31.7630   34.2720 C.2    81  VAL81       0.2287
     48  O         28.1350   32.3570   33.8110 O.2    81  VAL81      -0.2864
     49  CB        29.0160   29.4590   35.2590 C.3    81  VAL81       0.0276
     50  CG1       27.7470   29.9770   35.9290 C.3    81  VAL81       0.0022
     51  CG2       28.8300   28.0010   34.8920 C.3    81  VAL81       0.0022
     52  N         29.1820   33.8050   30.9650 N.3    84  ASN84      -0.1240
     53  CA        27.9300   33.6570   30.2340 C.3    84  ASN84       0.1653
     54  C         26.8400   34.5120   30.8700 C.2    84  ASN84       0.2266
     55  O         26.0580   35.1530   30.1670 O.2    84  ASN84      -0.2867
     56  CB        27.4710   32.1950   30.2100 C.3    84  ASN84       0.1155
     57  CG        28.2930   31.3360   29.2630 C.2    84  ASN84       0.2627
     58  OD1       28.8260   31.8240   28.2670 O.2    84  ASN84      -0.2716
     59  ND2       28.3810   30.0450   29.5620 N.am   84  ASN84      -0.0877
     60  N         24.7450   37.5220   29.0050 N.3    88  ARG88      -0.1231
     61  CA        23.3040   37.3390   28.9380 C.3    88  ARG88       0.1694
     62  C         22.5600   38.5200   29.5620 C.2    88  ARG88       0.2591
     63  O         21.5120   38.9450   29.0690 O.2    88  ARG88      -0.2718
     64  CB        22.9570   36.0520   29.6800 C.3    88  ARG88       0.0321
     65  CG        21.4890   35.7080   29.7570 C.3    88  ARG88       0.0489
     66  CD        21.2550   34.7980   30.9450 C.3    88  ARG88       0.2205
     67  NE        22.2740   33.7570   31.0060 N.pl3  88  ARG88      -0.0865
     68  CZ        22.8450   33.3320   32.1260 C.cat  88  ARG88       0.5346
     69  NH1       22.5050   33.8580   33.2940 N.pl3  88  ARG88       0.1354
     70  NH2       23.7620   32.3790   32.0720 N.pl3  88  ARG88       0.1354
     71  N         23.1240   39.0560   30.6380 N.am   89  GLU89      -0.1979
     72  CA        22.5190   40.1640   31.3640 C.3    89  GLU89       0.1602
     73  C         23.2020   41.5060   31.1500 C.2    89  GLU89       0.2287
     74  O         23.0980   42.3990   31.9970 O.2    89  GLU89      -0.2864
     75  CB        22.5050   39.8280   32.8540 C.3    89  GLU89       0.0415
     76  CG        21.5780   38.6700   33.1900 C.3    89  GLU89       0.1163
     77  CD        21.8260   38.0870   34.5670 C.2    89  GLU89       0.3649
     78  OE1       22.1620   38.8650   35.4880 O.co2  89  GLU89      -0.2457
     79  OE2       21.6700   36.8510   34.7250 O.co2  89  GLU89      -0.2457
     80  N         22.8960   19.5590   23.2200 N.3   123  ARG123     -0.1231
     81  CA        23.1920   20.3050   24.4280 C.3   123  ARG123      0.1694
     82  C         22.1890   19.9180   25.5190 C.2   123  ARG123      0.2593
     83  O         20.9750   19.9090   25.3010 O.2   123  ARG123     -0.2718
     84  CB        23.1260   21.8060   24.1400 C.3   123  ARG123      0.0321
     85  CG        23.3480   22.6770   25.3530 C.3   123  ARG123      0.0489
     86  CD        22.9550   24.1260   25.0680 C.3   123  ARG123      0.2205
     87  NE        22.8400   24.9070   26.2980 N.pl3 123  ARG123     -0.0865
     88  CZ        23.8550   25.1700   27.1150 C.cat 123  ARG123      0.5346
     89  NH1       25.0770   24.7200   26.8310 N.pl3 123  ARG123      0.1354
     90  NH2       23.6500   25.8660   28.2260 N.pl3 123  ARG123      0.1354
     91  N         22.7090   19.5790   26.6910 N.am  124  GLY124     -0.1942
     92  CA        21.8440   19.1990   27.7900 C.3   124  GLY124      0.2014
     93  C         21.8750   20.2140   28.9150 C.2   124  GLY124      0.2640
     94  O         22.9000   20.8560   29.1600 O.2   124  GLY124     -0.2714
     95  N         20.7420   20.3750   29.5860 N.am  125  THR125     -0.1936
     96  CA        20.6540   21.3030   30.7030 C.3   125  THR125      0.2028
     97  C         19.7930   20.6790   31.7870 C.2   125  THR125      0.2642
     98  O         19.0750   19.7110   31.5370 O.2   125  THR125     -0.2714
     99  CB        20.0170   22.6690   30.2950 C.3   125  THR125      0.1808
    100  OG1       18.6560   22.4790   29.8750 O.3   125  THR125     -0.2208
    101  CG2       20.8060   23.3120   29.1790 C.3   125  THR125      0.0379
    102  N         19.8780   21.2240   32.9930 N.am  126  LYS126     -0.1963
    103  CA        19.0690   20.7270   34.0990 C.3   126  LYS126      0.1728
    104  C         18.0280   21.7880   34.4690 C.2   126  LYS126      0.2616
    105  O         17.3980   21.7430   35.5300 O.2   126  LYS126     -0.2715
    106  CB        19.9580   20.3670   35.2910 C.3   126  LYS126      0.0311
    107  CG        20.8350   19.1510   35.0130 C.3   126  LYS126      0.0038
    108  CD        21.7760   18.8400   36.1660 C.3   126  LYS126      0.0206
    109  CE        22.6350   17.6130   35.8550 C.3   126  LYS126      0.1093
    110  NZ        23.5010   17.2110   36.9990 N.3   126  LYS126     -0.1314
    111  N         17.8560   22.7460   33.5670 N.am  127  THR127     -0.1951
    112  CA        16.8810   23.8070   33.7530 C.3   127  THR127      0.1897
    113  C         16.0040   23.8290   32.5130 C.2   127  THR127      0.2313
    114  O         16.5090   23.9170   31.3890 O.2   127  THR127     -0.2863
    115  CB        17.5490   25.1810   33.9060 C.3   127  THR127      0.1794
    116  OG1       18.4140   25.1770   35.0480 O.3   127  THR127     -0.2208
    117  CG2       16.4890   26.2500   34.0910 C.3   127  THR127      0.0378
    118  N         13.8370   24.9340   29.5150 N.3   129  PHE129     -0.1241
    119  CA        13.8690   26.0910   28.6390 C.3   129  PHE129      0.1605
    120  C         12.5460   26.1760   27.8980 C.2   129  PHE129      0.2264
    121  O         12.1010   25.1910   27.3150 O.2   129  PHE129     -0.2867
    122  CB        15.0180   25.9730   27.6350 C.3   129  PHE129      0.0534
    123  CG        16.2760   26.6670   28.0730 C.ar  129  PHE129     -0.0203
    124  CD1       17.1900   26.0300   28.9090 C.ar  129  PHE129     -0.0042
    125  CD2       16.5360   27.9740   27.6700 C.ar  129  PHE129     -0.0042
    126  CE1       18.3460   26.6940   29.3360 C.ar  129  PHE129     -0.0003
    127  CE2       17.6890   28.6410   28.0930 C.ar  129  PHE129     -0.0003
    128  CZ        18.5920   28.0050   28.9240 C.ar  129  PHE129     -0.0000
    129  N         21.1330   32.1080   21.2970 N.3   139  PHE139     -0.1241
    130  CA        21.4630   31.7780   22.6770 C.3   139  PHE139      0.1605
    131  C         21.9220   33.0130   23.4440 C.2   139  PHE139      0.2264
    132  O         21.7900   33.0680   24.6640 O.2   139  PHE139     -0.2867
    133  CB        22.5380   30.6990   22.7250 C.3   139  PHE139      0.0534
    134  CG        22.0170   29.3280   22.4390 C.ar  139  PHE139     -0.0203
    135  CD1       21.1950   28.6800   23.3590 C.ar  139  PHE139     -0.0042
    136  CD2       22.3080   28.6950   21.2330 C.ar  139  PHE139     -0.0042
    137  CE1       20.6670   27.4230   23.0820 C.ar  139  PHE139     -0.0003
    138  CE2       21.7860   27.4420   20.9470 C.ar  139  PHE139     -0.0003
    139  CZ        20.9630   26.8030   21.8760 C.ar  139  PHE139     -0.0000
    140  N         24.4260   34.1860   24.9210 N.3   141  GLN141     -0.1245
    141  CA        25.7160   33.8830   25.5040 C.3   141  GLN141      0.1566
    142  C         26.3730   32.8100   24.6340 C.2   141  GLN141      0.2260
    143  O         25.6970   32.1520   23.8340 O.2   141  GLN141     -0.2867
    144  CB        25.5180   33.3290   26.9140 C.3   141  GLN141      0.0367
    145  CG        24.7060   32.0520   26.9470 C.3   141  GLN141      0.0905
    146  CD        24.4470   31.5760   28.3580 C.2   141  GLN141      0.2608
    147  OE1       24.0310   32.3540   29.2200 O.2   141  GLN141     -0.2717
    148  NE2       24.6780   30.2920   28.6030 N.am  141  GLN141     -0.0878
    149  N         27.6920   29.2480   23.8530 N.3   143  THR143     -0.1203
    150  CA        27.0960   28.0320   24.3770 C.3   143  THR143      0.1994
    151  C         27.7970   26.7780   23.8880 C.2   143  THR143      0.2619
    152  O         28.0480   26.6070   22.6970 O.2   143  THR143     -0.2717
    153  CB        25.5870   28.0010   24.0300 C.3   143  THR143      0.1784
    154  OG1       25.2600   26.8100   23.3070 O.3   143  THR143     -0.2211
    155  CG2       25.2300   29.2000   23.1930 C.3   143  THR143      0.0376
    156  N         28.1240   25.9020   24.8270 N.am  144  SER144     -0.1937
    157  CA        28.8130   24.6710   24.4910 C.3   144  SER144      0.2055
    158  C         27.8180   23.5790   24.1530 C.2   144  SER144      0.2644
    159  O         26.6560   23.6350   24.5540 O.2   144  SER144     -0.2714
    160  CB        29.7040   24.2230   25.6510 C.3   144  SER144      0.2130
    161  OG        28.9300   23.8360   26.7700 O.3   144  SER144     -0.2179
    162  N         28.2930   22.5890   23.4050 N.am  145  SER145     -0.1935
    163  CA        27.4830   21.4550   22.9830 C.3   145  SER145      0.2055
    164  C         28.4340   20.3090   22.6760 C.2   145  SER145      0.2643
    165  O         29.6490   20.4360   22.8550 O.2   145  SER145     -0.2714
    166  CB        26.6850   21.8030   21.7240 C.3   145  SER145      0.2130
    167  OG        27.5500   22.0790   20.6360 O.3   145  SER145     -0.2179
    168  N         27.8790   19.2010   22.1960 N.am  146  SER146     -0.1949
    169  CA        28.6860   18.0410   21.8610 C.3   146  SER146      0.1924
    170  C         28.1630   17.3040   20.6370 C.2   146  SER146      0.2314
    171  O         26.9540   17.1770   20.4510 O.2   146  SER146     -0.2863
    172  CB        28.7370   17.0800   23.0490 C.3   146  SER146      0.2116
    173  OG        29.2160   15.8140   22.6430 O.3   146  SER146     -0.2180
    174  N         26.8340   12.4140   25.3730 N.3   151  VAL151     -0.1231
    175  CA        27.4380   13.3590   26.3030 C.3   151  VAL151      0.1692
    176  C         26.3850   14.3390   26.8100 C.2   151  VAL151      0.2591
    177  O         26.1810   14.4830   28.0140 O.2   151  VAL151     -0.2718
    178  CB        28.5790   14.1490   25.6180 C.3   151  VAL151      0.0266
    179  CG1       29.0990   15.2400   26.5390 C.3   151  VAL151      0.0020
    180  CG2       29.7050   13.2010   25.2360 C.3   151  VAL151      0.0020
    181  N         25.7120   15.0010   25.8770 N.am  152  ALA152     -0.1980
    182  CA        24.6850   15.9740   26.2100 C.3   152  ALA152      0.1597
    183  C         23.6490   15.4390   27.1960 C.2   152  ALA152      0.2287
    184  O         23.0770   16.2010   27.9740 O.2   152  ALA152     -0.2864
    185  CB        23.9950   16.4460   24.9360 C.3   152  ALA152      0.0319
    186  N         25.3960   17.0710   32.3600 N.3   157  PHE157     -0.1241
    187  CA        24.6950   18.2470   31.8660 C.3   157  PHE157      0.1605
    188  C         23.1680   18.1940   31.8440 C.2   157  PHE157      0.2264
    189  O         22.5180   19.2300   31.8980 O.2   157  PHE157     -0.2867
    190  CB        25.1760   18.5540   30.4440 C.3   157  PHE157      0.0534
    191  CG        26.6530   18.3740   30.2520 C.ar  157  PHE157     -0.0203
    192  CD1       27.5560   19.2560   30.8320 C.ar  157  PHE157     -0.0042
    193  CD2       27.1430   17.2960   29.5200 C.ar  157  PHE157     -0.0042
    194  CE1       28.9300   19.0710   30.6910 C.ar  157  PHE157     -0.0003
    195  CE2       28.5130   17.1010   29.3720 C.ar  157  PHE157     -0.0003
    196  CZ        29.4100   17.9920   29.9600 C.ar  157  PHE157     -0.0000
    197  N         39.6550   22.0040   25.0340 N.3   179  SER179     -0.1217
    198  CA        38.9280   21.5640   26.2160 C.3   179  SER179      0.1889
    199  C         39.7780   20.8410   27.2510 C.2   179  SER179      0.2288
    200  O         40.8940   20.4040   26.9670 O.2   179  SER179     -0.2866
    201  CB        37.7740   20.6560   25.8130 C.3   179  SER179      0.2089
    202  OG        37.0460   20.2620   26.9600 O.3   179  SER179     -0.2183
    203  N         38.6710   18.1500   28.6340 N.3   181  ARG181     -0.1245
    204  CA        38.2700   16.7520   28.4620 C.3   181  ARG181      0.1563
    205  C         39.4330   15.8320   28.0600 C.2   181  ARG181      0.2260
    206  O         40.1980   15.4010   28.9250 O.2   181  ARG181     -0.2867
    207  CB        37.1360   16.6660   27.4410 C.3   181  ARG181      0.0307
    208  CG        36.0860   17.7330   27.5860 C.3   181  ARG181      0.0489
    209  CD        35.2510   17.8680   26.3200 C.3   181  ARG181      0.2205
    210  NE        36.0110   18.3230   25.1580 N.pl3 181  ARG181     -0.0865
    211  CZ        36.3020   17.5650   24.1050 C.cat 181  ARG181      0.5346
    212  NH1       35.9010   16.3030   24.0580 N.pl3 181  ARG181      0.1354
    213  NH2       36.9830   18.0760   23.0900 N.pl3 181  ARG181      0.1354
    214  N         34.3070   14.8980   25.3750 N.3   184  GLN184     -0.1245
    215  CA        32.9370   15.3790   25.2560 C.3   184  GLN184      0.1566
    216  C         32.6080   15.9640   23.8820 C.2   184  GLN184      0.2260
    217  O         31.5530   16.5670   23.7080 O.2   184  GLN184     -0.2867
    218  CB        32.6500   16.4160   26.3420 C.3   184  GLN184      0.0367
    219  CG        33.0770   15.9680   27.7310 C.3   184  GLN184      0.0905
    220  CD        32.9500   17.0650   28.7690 C.2   184  GLN184      0.2608
    221  OE1       33.3340   18.2130   28.5330 O.2   184  GLN184     -0.2717
    222  NE2       32.4220   16.7110   29.9360 N.am  184  GLN184     -0.0878
    223  N         33.2300   18.5950   22.2460 N.3   186  ILE186     -0.1245
    224  CA        32.6630   19.9280   22.3220 C.3   186  ILE186      0.1561
    225  C         32.6960   20.7520   21.0470 C.2   186  ILE186      0.2260
    226  O         33.6940   20.7750   20.3320 O.2   186  ILE186     -0.2867
    227  CB        33.3580   20.7630   23.4070 C.3   186  ILE186      0.0252
    228  CG1       33.2150   20.0810   24.7640 C.3   186  ILE186      0.0019
    229  CG2       32.7640   22.1660   23.4520 C.3   186  ILE186      0.0019
    230  CD1       33.8950   20.8420   25.8880 C.3   186  ILE186      0.0001
@<TRIPOS>BOND
     1   226   225    2
     2   171   170    2
     3   167   166    1
     4   170   169    1
     5   138   136   ar
     6   138   139   ar
     7   225   224    1
     8   136   134   ar
     9   129   130    1
    10   166   163    1
    11   169   168    1
    12   169   172    1
    13   139   137   ar
    14   168   164   am
    15   223   224    1
    16   224   227    1
    17   134   133    1
    18   134   135   ar
    19   173   172    1
    20   164   165    2
    21   164   163    1
    22   130   133    1
    23   130   131    1
    24   152   151    2
    25   163   162    1
    26   137   135   ar
    27   213   211    1
    28   155   153    1
    29    80    81    1
    30   154   153    1
    31   162   158   am
    32   227   229    1
    33   227   228    1
    34   131   132    2
    35   217   216    2
    36   143   142    2
    37   149   150    1
    38   216   215    1
    39   151   150    1
    40   151   156   am
    41   153   150    1
    42   212   211    1
    43   211   210    2
    44    84    81    1
    45    84    85    1
    46   158   157    1
    47   158   159    2
    48    81    82    1
    49   157   156    1
    50   157   160    1
    51   142   141    1
    52   228   230    1
    53   140   141    1
    54   185   182    1
    55   197   198    1
    56    86    85    1
    57    86    87    1
    58   210   209    1
    59   180   178    1
    60   215   214    1
    61   215   218    1
    62    83    82    2
    63   174   175    1
    64   141   144    1
    65    82    91   am
    66   178   175    1
    67   178   179    1
    68   160   161    1
    69   201   198    1
    70   201   202    1
    71   181   182    1
    72   181   176   am
    73   182   183    1
    74   198   199    1
    75    87    88    2
    76   175   176    1
    77   209   208    1
    78   218   219    1
    79    35    33    1
    80    26    24   ar
    81    26    27   ar
    82    24    22   ar
    83    91    92    1
    84   176   177    2
    85    89    88    1
    86   144   145    1
    87   145   146    1
    88   200   199    2
    89    28    27    1
    90    27    25   ar
    91    22    21    1
    92    22    23   ar
    93    11    12    2
    94    11    10    1
    95    88    90    1
    96    21    18    1
    97   183   184    2
    98   121   120    2
    99   207   208    1
   100   207   204    1
   101   122   123    1
   102   122   119    1
   103    25    23   ar
   104   125   123   ar
   105   125   127   ar
   106   219   220    1
   107    92    93    1
   108    33    34    1
   109    33    30    1
   110   120   119    1
   111   205   204    1
   112   205   206    2
   113   123   124   ar
   114   127   128   ar
   115    13    10    1
   116    13    14    1
   117    10     9    1
   118    58    57    2
   119   146   148   am
   120   146   147    2
   121    29    30    1
   122    29    19   am
   123   204   203    1
   124   221   220    2
   125    18    17    1
   126    18    19    1
   127   119   118    1
   128    30    31    1
   129   220   222   am
   130    19    20    2
   131   124   126   ar
   132    93    94    2
   133    93    95   am
   134   128   126   ar
   135    61    60    1
   136    61    62    1
   137    61    64    1
   138    63    62    2
   139   101    99    1
   140    57    59   am
   141    57    56    1
   142     4     3    2
   143    14    15    1
   144   195   193   ar
   145   195   196   ar
   146     9     3   am
   147   193   191   ar
   148    62    71   am
   149    95    96    1
   150    15    16    1
   151    64    65    1
   152    65    66    1
   153   100    99    1
   154     3     2    1
   155   196   194   ar
   156    31    32    2
   157    31    36   am
   158    55    54    2
   159    56    53    1
   160    53    54    1
   161    53    52    1
   162   191   190    1
   163   191   192   ar
   164    99    96    1
   165   190   187    1
   166    71    72    1
   167   194   192   ar
   168    96    97    1
   169    36    37    1
   170    66    67    1
   171    67    68    2
   172    44    41    1
   173    73    72    1
   174    73    74    2
   175     5     2    1
   176     5     6    1
   177     2     1    1
   178    72    75    1
   179   114   113    2
   180    98    97    2
   181    43    42    2
   182    41    42    1
   183    41    40    1
   184    97   102   am
   185   188   187    1
   186   188   189    2
   187   187   186    1
   188    70    68    1
   189    68    69    1
   190    42    45   am
   191     7     6    1
   192    37    38    1
   193   113   112    1
   194     6     8    1
   195    39    38    2
   196    75    76    1
   197   102   103    1
   198    76    77    1
   199    45    46    1
   200   111   112    1
   201   111   104   am
   202   112   115    1
   203    48    47    2
   204   115   117    1
   205   115   116    1
   206    46    47    1
   207    46    49    1
   208   103   104    1
   209   103   106    1
   210   104   105    2
   211    77    79   ar
   212    77    78   ar
   213    51    49    1
   214   107   106    1
   215   107   108    1
   216    49    50    1
   217   109   108    1
   218   109   110    1
