@<TRIPOS>MOLECULE
tmp/1og5B01.pdb
 145 140 0 0 0
SMALL
GASTEIGER

@<TRIPOS>ATOM
      1  N        -53.3870   34.7160   28.8330 N.3    68  ARG68      -0.1231
      2  CA       -54.4390   35.7120   28.7280 C.3    68  ARG68       0.1694
      3  C        -55.5090   35.3760   29.7590 C.2    68  ARG68       0.2593
      4  O        -56.0650   34.2740   29.7420 O.2    68  ARG68      -0.2718
      5  CB       -55.0430   35.7010   27.3190 C.3    68  ARG68       0.0321
      6  CG       -56.3210   36.5050   27.1520 C.3    68  ARG68       0.0489
      7  CD       -56.0670   37.9770   27.3370 C.3    68  ARG68       0.2205
      8  NE       -55.3820   38.5620   26.1950 N.pl3  68  ARG68      -0.0865
      9  CZ       -54.3930   39.4420   26.2910 C.cat  68  ARG68       0.5346
     10  NH1      -53.8340   39.9270   25.1900 N.pl3  68  ARG68       0.1354
     11  NH2      -53.9640   39.8390   27.4840 N.pl3  68  ARG68       0.1354
     12  N        -55.8160   36.3420   30.6230 N.am   69  GLY69      -0.1942
     13  CA       -56.8420   36.1530   31.6350 C.3    69  GLY69       0.2014
     14  C        -58.1800   36.5850   31.0790 C.2    69  GLY69       0.2639
     15  O        -58.2410   37.4700   30.2210 O.2    69  GLY69      -0.2714
     16  N        -59.2530   35.9220   31.5020 N.am   70  ILE70      -0.1963
     17  CA       -60.5780   36.2690   30.9980 C.3    70  ILE70       0.1727
     18  C        -61.5720   36.4850   32.1230 C.2    70  ILE70       0.2616
     19  O        -61.7520   35.6130   32.9750 O.2    70  ILE70      -0.2715
     20  CB       -61.1390   35.1930   30.0030 C.3    70  ILE70       0.0290
     21  CG1      -60.0240   34.6660   29.0720 C.3    70  ILE70       0.0022
     22  CG2      -62.2450   35.8110   29.1650 C.3    70  ILE70       0.0023
     23  CD1      -60.4490   33.8660   27.8600 C.3    70  ILE70       0.0001
     24  N        -62.1920   37.6630   32.1400 N.am   71  PHE71      -0.1974
     25  CA       -63.2060   37.9760   33.1430 C.3    71  PHE71       0.1639
     26  C        -64.5420   37.3570   32.7010 C.2    71  PHE71       0.2290
     27  O        -64.7370   37.1140   31.5020 O.2    71  PHE71      -0.2864
     28  CB       -63.3100   39.4860   33.3580 C.3    71  PHE71       0.0560
     29  CG       -62.3730   40.0060   34.3950 C.ar   71  PHE71      -0.0200
     30  CD1      -61.0600   40.3460   34.0520 C.ar   71  PHE71      -0.0042
     31  CD2      -62.7910   40.1760   35.7240 C.ar   71  PHE71      -0.0042
     32  CE1      -60.1580   40.8570   35.0070 C.ar   71  PHE71      -0.0003
     33  CE2      -61.9000   40.6850   36.6960 C.ar   71  PHE71      -0.0003
     34  CZ       -60.5760   41.0300   36.3330 C.ar   71  PHE71      -0.0000
     35  N        -67.7300   38.2540   31.9980 N.3    73  LEU73      -0.1231
     36  CA       -68.4460   38.7770   30.8450 C.3    73  LEU73       0.1693
     37  C        -67.8000   38.4070   29.5100 C.2    73  LEU73       0.2591
     38  O        -68.5050   38.0090   28.5780 O.2    73  LEU73      -0.2718
     39  CB       -68.6420   40.2950   30.9540 C.3    73  LEU73       0.0284
     40  CG       -69.4890   41.0080   29.8830 C.3    73  LEU73       0.0019
     41  CD1      -68.6830   41.3680   28.6280 C.3    73  LEU73       0.0001
     42  CD2      -70.7410   40.2150   29.5200 C.3    73  LEU73       0.0001
     43  N        -66.4860   38.5990   29.4100 N.am   74  ALA74      -0.1980
     44  CA       -65.7520   38.2950   28.1880 C.3    74  ALA74       0.1597
     45  C        -65.8310   36.8150   27.8560 C.2    74  ALA74       0.2287
     46  O        -66.0010   36.4550   26.6960 O.2    74  ALA74      -0.2864
     47  CB       -64.3130   38.7360   28.3060 C.3    74  ALA74       0.0319
     48  N        -56.4710   37.0190   20.4020 N.3    84  VAL84      -0.1231
     49  CA       -56.6750   37.8560   21.5780 C.3    84  VAL84       0.1692
     50  C        -57.1040   37.0930   22.8340 C.2    84  VAL84       0.2592
     51  O        -56.6460   37.4050   23.9380 O.2    84  VAL84      -0.2718
     52  CB       -57.7050   38.9830   21.2860 C.3    84  VAL84       0.0266
     53  CG1      -57.8970   39.8580   22.4690 C.3    84  VAL84       0.0020
     54  CG2      -57.2660   39.8470   20.1470 C.3    84  VAL84       0.0020
     55  N        -58.0080   36.1300   22.6660 N.am   85  PHE85      -0.1976
     56  CA       -58.5230   35.3580   23.7980 C.3    85  PHE85       0.1639
     57  C        -57.8800   33.9850   23.9300 C.2    85  PHE85       0.2290
     58  O        -58.1810   33.2540   24.8740 O.2    85  PHE85      -0.2864
     59  CB       -60.0510   35.1770   23.7040 C.3    85  PHE85       0.0560
     60  CG       -60.8400   36.4600   23.6080 C.ar   85  PHE85      -0.0200
     61  CD1      -60.6930   37.3110   22.5020 C.ar   85  PHE85      -0.0042
     62  CD2      -61.7900   36.7920   24.5910 C.ar   85  PHE85      -0.0042
     63  CE1      -61.4710   38.4820   22.3540 C.ar   85  PHE85      -0.0003
     64  CE2      -62.5910   37.9700   24.4620 C.ar   85  PHE85      -0.0003
     65  CZ       -62.4230   38.8140   23.3330 C.ar   85  PHE85      -0.0000
     66  N        -69.8050   47.4250   25.5870 N.3   179  LEU179     -0.1245
     67  CA       -68.6720   47.2130   26.4720 C.3   179  LEU179      0.1561
     68  C        -68.2600   48.4160   27.3050 C.2   179  LEU179      0.2260
     69  O        -67.7370   48.2500   28.4080 O.2   179  LEU179     -0.2867
     70  CB       -67.4730   46.6880   25.6820 C.3   179  LEU179      0.0270
     71  CG       -67.5860   45.2250   25.2370 C.3   179  LEU179      0.0019
     72  CD1      -66.4240   44.8440   24.3280 C.3   179  LEU179      0.0001
     73  CD2      -67.6590   44.3190   26.4520 C.3   179  LEU179      0.0001
     74  N        -71.3480   47.2990   33.2220 N.3   184  ILE184     -0.1231
     75  CA       -70.8970   46.0370   32.6450 C.3   184  ILE184      0.1692
     76  C        -70.0820   45.3760   33.7650 C.2   184  ILE184      0.2591
     77  O        -70.1060   44.1560   33.9150 O.2   184  ILE184     -0.2718
     78  CB       -69.9510   46.2430   31.3990 C.3   184  ILE184      0.0266
     79  CG1      -70.7100   45.9090   30.1080 C.3   184  ILE184      0.0019
     80  CG2      -68.6600   45.3920   31.4940 C.3   184  ILE184      0.0020
     81  CD1      -70.5730   44.4800   29.6410 C.3   184  ILE184      0.0001
     82  N        -69.3840   46.2060   34.5450 N.am  185  GLN185     -0.1979
     83  CA       -68.5800   45.7520   35.6560 C.3   185  GLN185      0.1601
     84  C        -69.2660   44.9150   36.6940 C.2   185  GLN185      0.2287
     85  O        -68.6540   44.0550   37.3260 O.2   185  GLN185     -0.2864
     86  CB       -67.8620   46.9260   36.3170 C.3   185  GLN185      0.0394
     87  CG       -66.3690   46.8140   36.1860 C.3   185  GLN185      0.0908
     88  CD       -65.9130   46.1720   34.8240 C.2   185  GLN185      0.2608
     89  OE1      -65.5290   45.0260   34.8100 O.2   185  GLN185     -0.2717
     90  NE2      -66.0000   46.9760   33.7560 N.am  185  GLN185     -0.0878
     91  N        -68.8630   41.2420   36.0850 N.3   188  ASN188     -0.1240
     92  CA       -67.5760   40.6740   36.4780 C.3   188  ASN188      0.1653
     93  C        -67.4000   40.4600   37.9780 C.2   188  ASN188      0.2266
     94  O        -66.5000   39.7360   38.4020 O.2   188  ASN188     -0.2867
     95  CB       -66.4190   41.4870   35.9020 C.3   188  ASN188      0.1155
     96  CG       -66.3610   41.4310   34.3790 C.2   188  ASN188      0.2627
     97  OD1      -66.6530   40.4030   33.7630 O.2   188  ASN188     -0.2716
     98  ND2      -65.9670   42.5400   33.7690 N.am  188  ASN188     -0.0877
     99  N        -55.2420   49.2690   32.2560 N.3   335  THR335     -0.1203
    100  CA       -54.8530   47.9760   32.7670 C.3   335  THR335      0.1994
    101  C        -54.6500   46.9810   31.6480 C.2   335  THR335      0.2619
    102  O        -54.9420   45.7840   31.8210 O.2   335  THR335     -0.2717
    103  CB       -55.8890   47.4080   33.7660 C.3   335  THR335      0.1784
    104  OG1      -57.1340   47.1900   33.0930 O.3   335  THR335     -0.2211
    105  CG2      -56.1080   48.3540   34.9150 C.3   335  THR335      0.0376
    106  N        -54.2130   47.4750   30.4810 N.am  336  SER336     -0.1937
    107  CA       -53.9580   46.6260   29.3050 C.3   336  SER336      0.2055
    108  C        -55.1660   45.6940   29.1020 C.2   336  SER336      0.2643
    109  O        -56.3180   46.1200   29.2080 O.2   336  SER336     -0.2714
    110  CB       -52.6730   45.8150   29.5610 C.3   336  SER336      0.2130
    111  OG       -52.2190   45.1630   28.3990 O.3   336  SER336     -0.2179
    112  N        -54.8680   44.4240   28.8610 N.am  337  LEU337     -0.1963
    113  CA       -55.8480   43.3640   28.7470 C.3   337  LEU337      0.1713
    114  C        -55.4020   42.4280   29.8660 C.2   337  LEU337      0.2458
    115  O        -54.2280   42.4610   30.2620 O.2   337  LEU337     -0.2730
    116  CB       -55.7720   42.6990   27.3770 C.3   337  LEU337      0.0310
    117  CG       -56.9680   42.9990   26.4670 C.3   337  LEU337      0.0022
    118  CD1      -57.3580   44.4700   26.4920 C.3   337  LEU337      0.0001
    119  CD2      -56.6480   42.5680   25.0550 C.3   337  LEU337      0.0001
    120  N        -56.3180   41.6150   30.4230 N.am  338  PRO338     -0.2727
    121  CA       -55.9260   40.7110   31.5060 C.3   338  PRO338      0.1402
    122  C        -54.9410   39.6230   31.1440 C.2   338  PRO338      0.2269
    123  O        -55.0010   39.0430   30.0620 O.2   338  PRO338     -0.2865
    124  CB       -57.2590   40.1090   31.9460 C.3   338  PRO338      0.0296
    125  CG       -58.2060   41.1280   31.6180 C.3   338  PRO338      0.0237
    126  CD       -57.7750   41.5640   30.2560 C.3   338  PRO338      0.0939
    127  N        -53.4570   41.6090   36.6050 N.3   359  LEU359     -0.1245
    128  CA       -53.7580   42.9330   36.0730 C.3   359  LEU359      0.1561
    129  C        -52.5060   43.7970   35.9920 C.2   359  LEU359      0.2260
    130  O        -51.8470   44.0550   37.0040 O.2   359  LEU359     -0.2867
    131  CB       -54.8450   43.6500   36.8820 C.3   359  LEU359      0.0270
    132  CG       -56.3060   43.2660   36.6200 C.3   359  LEU359      0.0019
    133  CD1      -57.2330   44.2650   37.3130 C.3   359  LEU359      0.0001
    134  CD2      -56.6070   43.2100   35.1380 C.3   359  LEU359      0.0001
    135  N        -62.7510   49.7050   31.9360 N.3   447  PHE447     -0.1241
    136  CA       -61.3340   49.4360   31.6450 C.3   447  PHE447      0.1605
    137  C        -60.7220   50.0350   30.3850 C.2   447  PHE447      0.2264
    138  O        -59.7090   49.5390   29.8650 O.2   447  PHE447     -0.2867
    139  CB       -61.0830   47.9380   31.6700 C.3   447  PHE447      0.0534
    140  CG       -61.2670   47.3390   33.0120 C.ar  447  PHE447     -0.0203
    141  CD1      -60.2940   47.5180   34.0080 C.ar  447  PHE447     -0.0042
    142  CD2      -62.4280   46.6120   33.3110 C.ar  447  PHE447     -0.0042
    143  CE1      -60.4810   46.9790   35.2810 C.ar  447  PHE447     -0.0003
    144  CE2      -62.6180   46.0710   34.5990 C.ar  447  PHE447     -0.0003
    145  CZ       -61.6470   46.2530   35.5890 C.ar  447  PHE447     -0.0000
@<TRIPOS>BOND
     1    54    52    1
     2    48    49    1
     3    52    49    1
     4    52    53    1
     5    49    50    1
     6    63    61   ar
     7    63    65   ar
     8    61    60   ar
     9    55    50   am
    10    55    56    1
    11    50    51    2
    12    65    64   ar
    13    60    59    1
    14    60    62   ar
    15    59    56    1
    16    56    57    1
    17    57    58    2
    18    72    71    1
    19    64    62   ar
    20   119   117    1
    21    10     9    1
    22    71    70    1
    23    71    73    1
    24    66    67    1
    25    70    67    1
    26     8     9    2
    27     8     7    1
    28     9    11    1
    29   117   118    1
    30   117   116    1
    31    67    68    1
    32    46    45    2
    33     6     5    1
    34     6     7    1
    35    68    69    2
    36     5     2    1
    37   116   113    1
    38    45    44    1
    39    23    21    1
    40    44    47    1
    41    44    43    1
    42   111   110    1
    43    38    37    2
    44    41    40    1
    45     2     1    1
    46     2     3    1
    47   113   112    1
    48   113   114    1
    49   112   108   am
    50    21    20    1
    51   108   109    2
    52   108   107    1
    53    22    20    1
    54   107   110    1
    55   107   106    1
    56    43    37   am
    57    37    36    1
    58    42    40    1
    59    81    79    1
    60     4     3    2
    61     3    12   am
    62   138   137    2
    63   114   115    2
    64   114   120   am
    65    40    39    1
    66    20    17    1
    67   123   122    2
    68    79    78    1
    69    15    14    2
    70   126   120    1
    71   126   125    1
    72   137   136    1
    73   120   121    1
    74   106   101   am
    75    12    13    1
    76    36    39    1
    77    36    35    1
    78    17    16    1
    79    17    18    1
    80    14    16   am
    81    14    13    1
    82   122   121    1
    83    78    80    1
    84    78    75    1
    85    27    26    2
    86   121   124    1
    87   125   124    1
    88   136   139    1
    89   136   135    1
    90   101   102    2
    91   101   100    1
    92   139   140    1
    93    18    24   am
    94    18    19    2
    95    24    25    1
    96    99   100    1
    97    75    74    1
    98    75    76    1
    99    26    25    1
   100   100   103    1
   101   140   142   ar
   102   140   141   ar
   103   104   103    1
   104    25    28    1
   105   142   144   ar
   106    28    29    1
   107    90    88   am
   108    97    96    2
   109    76    77    2
   110    76    82   am
   111   103   105    1
   112    98    96   am
   113   141   143   ar
   114    30    29   ar
   115    30    32   ar
   116    96    95    1
   117    29    31   ar
   118    82    83    1
   119   144   145   ar
   120    89    88    2
   121    88    87    1
   122    32    34   ar
   123   134   132    1
   124   143   145   ar
   125    83    86    1
   126    83    84    1
   127    31    33   ar
   128    95    92    1
   129   129   128    1
   130   129   130    2
   131   128   127    1
   132   128   131    1
   133    91    92    1
   134    87    86    1
   135    34    33   ar
   136    92    93    1
   137   132   131    1
   138   132   133    1
   139    84    85    2
   140    93    94    2
