@<TRIPOS>MOLECULE
tmp/1og6C00.pdb
 248 244 0 0 0
SMALL
GASTEIGER

@<TRIPOS>ATOM
      1  N          4.6600   24.5910   -6.9260 N.3    20  GLY20      -0.1210
      2  CA         3.2470   24.4050   -6.6440 C.3    20  GLY20       0.1956
      3  C          2.3890   23.9280   -7.7940 C.2    20  GLY20       0.2612
      4  O          2.4270   24.4890   -8.8900 O.2    20  GLY20      -0.2717
      5  N          1.5940   22.8960   -7.5330 N.am   21  TYR21      -0.1962
      6  CA         0.7200   22.3300   -8.5520 C.3    21  TYR21       0.1771
      7  C         -0.7620   22.6470   -8.3480 C.2    21  TYR21       0.2620
      8  O         -1.5920   21.7450   -8.2560 O.2    21  TYR21      -0.2715
      9  CB         0.9240   20.8090   -8.6300 C.3    21  TYR21       0.0574
     10  CG         2.2950   20.4170   -9.1330 C.ar   21  TYR21      -0.0198
     11  CD1        3.3690   20.2800   -8.2580 C.ar   21  TYR21      -0.0009
     12  CD2        2.5390   20.2650  -10.5010 C.ar   21  TYR21      -0.0009
     13  CE1        4.6520   20.0110   -8.7350 C.ar   21  TYR21       0.0417
     14  CE2        3.8170   20.0000  -10.9820 C.ar   21  TYR21       0.0417
     15  CZ         4.8630   19.8790  -10.0960 C.ar   21  TYR21       0.1957
     16  OH         6.1300   19.6580  -10.5690 O.3    21  TYR21      -0.2866
     17  N         -1.0920   23.9330   -8.2890 N.am   22  TRP22      -0.1960
     18  CA        -2.4780   24.3570   -8.1090 C.3    22  TRP22       0.1771
     19  C         -3.1640   24.5170   -9.4630 C.2    22  TRP22       0.2619
     20  O         -4.3060   24.0990   -9.6450 O.2    22  TRP22      -0.2715
     21  CB        -2.5340   25.6730   -7.3200 C.3    22  TRP22       0.0590
     22  CG        -3.9250   26.2340   -7.1310 C.ar   22  TRP22       0.0006
     23  CD1       -5.0890   25.5250   -6.9880 C.ar   22  TRP22       0.0946
     24  CD2       -4.2890   27.6220   -7.0180 C.ar   22  TRP22       0.0152
     25  NE1       -6.1490   26.3840   -6.7940 N.ar   22  TRP22      -0.2442
     26  CE2       -5.6870   27.6740   -6.8070 C.ar   22  TRP22       0.0810
     27  CE3       -3.5690   28.8270   -7.0730 C.ar   22  TRP22       0.0012
     28  CZ2       -6.3780   28.8840   -6.6490 C.ar   22  TRP22       0.0191
     29  CZ3       -4.2600   30.0340   -6.9140 C.ar   22  TRP22       0.0001
     30  CH2       -5.6490   30.0480   -6.7050 C.ar   22  TRP22       0.0015
     31  N         -2.4630   25.1120  -10.4190 N.am   23  ARG23      -0.1977
     32  CA        -3.0380   25.3040  -11.7380 C.3    23  ARG23       0.1597
     33  C         -2.7650   24.1150  -12.6380 C.2    23  ARG23       0.2287
     34  O         -3.0610   24.1570  -13.8280 O.2    23  ARG23      -0.2864
     35  CB        -2.4820   26.5680  -12.3920 C.3    23  ARG23       0.0334
     36  CG        -2.8490   27.8510  -11.6770 C.3    23  ARG23       0.0492
     37  CD        -1.8170   28.2310  -10.6270 C.3    23  ARG23       0.2205
     38  NE        -2.2060   29.4320   -9.8890 N.pl3  23  ARG23      -0.0865
     39  CZ        -2.5850   30.5790  -10.4530 C.cat  23  ARG23       0.5346
     40  NH1       -2.9190   31.6150   -9.6950 N.pl3  23  ARG23       0.1354
     41  NH2       -2.6390   30.6920  -11.7750 N.pl3  23  ARG23       0.1354
     42  N         -2.5500   23.6650  -16.9790 N.3    27  TRP27      -0.1241
     43  CA        -1.3830   23.5110  -17.8290 C.3    27  TRP27       0.1605
     44  C         -1.6400   22.4590  -18.8970 C.2    27  TRP27       0.2264
     45  O         -0.8980   22.3680  -19.8760 O.2    27  TRP27      -0.2867
     46  CB        -0.1530   23.1220  -17.0030 C.3    27  TRP27       0.0550
     47  CG         0.0920   24.0040  -15.8140 C.ar   27  TRP27       0.0003
     48  CD1       -0.3860   25.2730  -15.6130 C.ar   27  TRP27       0.0946
     49  CD2        0.8670   23.6800  -14.6540 C.ar   27  TRP27       0.0152
     50  NE1        0.0390   25.7520  -14.3980 N.ar   27  TRP27      -0.2442
     51  CE2        0.8100   24.7960  -13.7870 C.ar   27  TRP27       0.0810
     52  CE3        1.6050   22.5540  -14.2610 C.ar   27  TRP27       0.0012
     53  CZ2        1.4630   24.8170  -12.5480 C.ar   27  TRP27       0.0191
     54  CZ3        2.2530   22.5740  -13.0330 C.ar   27  TRP27       0.0001
     55  CH2        2.1770   23.7000  -12.1890 C.ar   27  TRP27       0.0015
     56  N          4.2550   21.3200   -3.8690 N.3    50  ASP50      -0.1239
     57  CA         3.0850   21.7120   -3.1010 C.3    50  ASP50       0.1674
     58  C          1.7940   21.1950   -3.7250 C.2    50  ASP50       0.2266
     59  O          1.6060   21.2810   -4.9350 O.2    50  ASP50      -0.2867
     60  CB         3.0350   23.2330   -3.0100 C.3    50  ASP50       0.1410
     61  CG         2.0140   23.7210   -2.0200 C.2    50  ASP50       0.3668
     62  OD1        2.1860   23.4440   -0.8150 O.co2  50  ASP50      -0.2456
     63  OD2        1.0430   24.3800   -2.4500 O.co2  50  ASP50      -0.2456
     64  N         -7.5710   21.1020   -4.5290 N.3    55  TYR55      -0.1241
     65  CA        -6.9590   21.5150   -5.8010 C.3    55  TYR55       0.1605
     66  C         -7.4200   20.8840   -7.1140 C.2    55  TYR55       0.2264
     67  O         -7.3460   19.6660   -7.2970 O.2    55  TYR55      -0.2867
     68  CB        -5.4370   21.3940   -5.7070 C.3    55  TYR55       0.0534
     69  CG        -4.8090   22.4750   -4.8730 C.ar   55  TYR55      -0.0201
     70  CD1       -5.5960   23.4450   -4.2730 C.ar   55  TYR55      -0.0009
     71  CD2       -3.4350   22.5160   -4.6610 C.ar   55  TYR55      -0.0009
     72  CE1       -5.0460   24.4250   -3.4760 C.ar   55  TYR55       0.0417
     73  CE2       -2.8670   23.5010   -3.8610 C.ar   55  TYR55       0.0417
     74  CZ        -3.6860   24.4510   -3.2660 C.ar   55  TYR55       0.1957
     75  OH        -3.1760   25.4000   -2.4150 O.3    55  TYR55      -0.2866
     76  N         -2.5530   19.5190    1.7700 N.3    83  LYS83      -0.1245
     77  CA        -3.3960   20.0740    2.8140 C.3    83  LYS83       0.1561
     78  C         -4.7380   19.3820    2.8100 C.2    83  LYS83       0.2260
     79  O         -4.9910   18.4980    1.9950 O.2    83  LYS83      -0.2867
     80  CB        -3.5930   21.5620    2.5590 C.3    83  LYS83       0.0271
     81  CG        -2.3670   22.2210    1.9550 C.3    83  LYS83       0.0035
     82  CD        -2.6590   23.6070    1.4380 C.3    83  LYS83       0.0206
     83  CE        -1.5050   24.1020    0.5960 C.3    83  LYS83       0.1093
     84  NZ        -1.3680   23.3190   -0.6550 N.3    83  LYS83      -0.1314
     85  N         -5.2860   23.1030    5.6370 N.3   128  HIS128     -0.1226
     86  CA        -5.4940   24.1340    4.6240 C.3   128  HIS128      0.1752
     87  C         -5.8590   25.5430    5.0880 C.2   128  HIS128      0.2595
     88  O         -5.2200   26.5070    4.6880 O.2   128  HIS128     -0.2718
     89  CB        -6.5600   23.6630    3.6340 C.3   128  HIS128      0.0759
     90  CG        -6.3180   24.0980    2.2210 C.ar  128  HIS128      0.0818
     91  ND1       -5.7780   25.3240    1.8990 N.ar  128  HIS128     -0.2268
     92  CD2       -6.5850   23.4830    1.0440 C.ar  128  HIS128      0.1154
     93  CE1       -5.7230   25.4470    0.5840 C.ar  128  HIS128      0.1986
     94  NE2       -6.2080   24.3440    0.0420 N.ar  128  HIS128     -0.2212
     95  N         -6.8800   25.6730    5.9260 N.am  129  ARG129     -0.1980
     96  CA        -7.3250   26.9950    6.3580 C.3   129  ARG129      0.1597
     97  C         -7.9300   26.9360    7.7790 C.2   129  ARG129      0.2287
     98  O         -8.4890   25.9130    8.1700 O.2   129  ARG129     -0.2864
     99  CB        -8.3410   27.4880    5.3140 C.3   129  ARG129      0.0334
    100  CG        -8.8870   28.8840    5.4930 C.3   129  ARG129      0.0492
    101  CD        -7.9790   29.9730    4.9300 C.3   129  ARG129      0.2205
    102  NE        -7.8700   29.9350    3.4740 N.pl3 129  ARG129     -0.0865
    103  CZ        -7.4210   30.9460    2.7310 C.cat 129  ARG129      0.5346
    104  NH1       -7.0400   32.0810    3.2980 N.pl3 129  ARG129      0.1354
    105  NH2       -7.3530   30.8250    1.4130 N.pl3 129  ARG129      0.1354
    106  N         -1.8910   26.4220    7.6460 N.3   158  SER158     -0.1202
    107  CA        -1.8420   27.3780    6.5500 C.3   158  SER158      0.2020
    108  C         -2.8360   28.5170    6.7470 C.2   158  SER158      0.2618
    109  O         -4.0230   28.2860    6.9560 O.2   158  SER158     -0.2717
    110  CB        -2.1160   26.6700    5.2340 C.3   158  SER158      0.2103
    111  OG        -2.0490   27.5770    4.1540 O.3   158  SER158     -0.2182
    112  N         -2.3290   29.7460    6.6820 N.am  159  ASN159     -0.1974
    113  CA        -3.1200   30.9590    6.8580 C.3   159  ASN159      0.1688
    114  C         -3.6420   31.0730    8.2820 C.2   159  ASN159      0.2292
    115  O         -4.7440   31.5610    8.5080 O.2   159  ASN159     -0.2864
    116  CB        -4.2880   30.9750    5.8870 C.3   159  ASN159      0.1181
    117  CG        -3.8600   30.7270    4.4710 C.2   159  ASN159      0.2629
    118  OD1       -3.1760   31.5420    3.8630 O.2   159  ASN159     -0.2716
    119  ND2       -4.2580   29.5870    3.9320 N.am  159  ASN159     -0.0877
    120  N          2.0660   28.0230    5.8510 N.3   180  GLN180     -0.1245
    121  CA         2.0000   28.5630    4.5050 C.3   180  GLN180      0.1566
    122  C          1.1180   29.7840    4.4030 C.2   180  GLN180      0.2260
    123  O         -0.0970   29.6710    4.4130 O.2   180  GLN180     -0.2867
    124  CB         1.4950   27.5120    3.5230 C.3   180  GLN180      0.0367
    125  CG         1.4140   28.0540    2.1130 C.3   180  GLN180      0.0905
    126  CD         1.2370   26.9810    1.0730 C.2   180  GLN180      0.2608
    127  OE1        1.9080   25.9510    1.1060 O.2   180  GLN180     -0.2717
    128  NE2        0.3460   27.2220    0.1270 N.am  180  GLN180     -0.0878
    129  N          2.9200   31.8540   -0.5120 N.3   209  TRP209     -0.1227
    130  CA         2.1860   31.6810   -1.7490 C.3   209  TRP209      0.1737
    131  C          1.7810   32.9620   -2.4460 C.2   209  TRP209      0.2596
    132  O          1.6810   34.0220   -1.8330 O.2   209  TRP209     -0.2718
    133  CB         0.9590   30.7810   -1.5580 C.3   209  TRP209      0.0564
    134  CG        -0.0730   31.1770   -0.5290 C.ar  209  TRP209      0.0003
    135  CD1       -0.1480   30.7420    0.7700 C.ar  209  TRP209      0.0946
    136  CD2       -1.2650   31.9450   -0.7590 C.ar  209  TRP209      0.0152
    137  NE1       -1.3170   31.1750    1.3510 N.ar  209  TRP209     -0.2442
    138  CE2       -2.0210   31.9150    0.4350 C.ar  209  TRP209      0.0810
    139  CE3       -1.7700   32.6500   -1.8620 C.ar  209  TRP209      0.0012
    140  CZ2       -3.2610   32.5650    0.5550 C.ar  209  TRP209      0.0191
    141  CZ3       -3.0000   33.2960   -1.7430 C.ar  209  TRP209      0.0001
    142  CH2       -3.7300   33.2470   -0.5430 C.ar  209  TRP209      0.0015
    143  N          1.5710   32.8340   -3.7520 N.am  210  SER210     -0.1938
    144  CA         1.1830   33.9340   -4.6230 C.3   210  SER210      0.2055
    145  C          2.1000   35.1480   -4.4970 C.2   210  SER210      0.2643
    146  O          1.6290   36.2800   -4.3520 O.2   210  SER210     -0.2714
    147  CB        -0.2700   34.3300   -4.3490 C.3   210  SER210      0.2130
    148  OG        -1.1520   33.2810   -4.7110 O.3   210  SER210     -0.2179
    149  N          3.4090   34.9040   -4.5580 N.am  211  CYS211     -0.1953
    150  CA         4.4020   35.9720   -4.4640 C.3   211  CYS211      0.1843
    151  C          4.1760   36.9540   -5.5890 C.2   211  CYS211      0.2625
    152  O          4.5510   38.1230   -5.4870 O.2   211  CYS211     -0.2714
    153  CB         5.8170   35.4200   -4.5780 C.3   211  CYS211      0.0997
    154  SG         6.2230   34.2160   -3.3270 S.3   211  CYS211     -0.0797
    155  N          3.5680   36.4650   -6.6670 N.am  212  LEU212     -0.1977
    156  CA         3.2700   37.2970   -7.8250 C.3   212  LEU212      0.1596
    157  C          1.7970   37.6830   -7.8180 C.2   212  LEU212      0.2287
    158  O          1.1870   37.8550   -8.8700 O.2   212  LEU212     -0.2864
    159  CB         3.6130   36.5530   -9.1170 C.3   212  LEU212      0.0297
    160  CG         5.0240   35.9700   -9.1640 C.3   212  LEU212      0.0022
    161  CD1        5.3320   35.5290  -10.5800 C.3   212  LEU212      0.0001
    162  CD2        6.0330   37.0080   -8.7060 C.3   212  LEU212      0.0001
    163  N         -0.6720   36.1030   -7.5690 N.3   214  GLY214     -0.1210
    164  CA        -1.4680   35.2130   -8.3980 C.3   214  GLY214      0.1956
    165  C         -1.3300   35.4910   -9.8830 C.2   214  GLY214      0.2612
    166  O         -2.0700   34.9370  -10.6950 O.2   214  GLY214     -0.2717
    167  N         -0.3770   36.3470  -10.2400 N.am  215  GLY215     -0.1956
    168  CA        -0.1690   36.6830  -11.6340 C.3   215  GLY215      0.1869
    169  C         -0.7280   38.0450  -11.9940 C.2   215  GLY215      0.2309
    170  O         -0.4480   38.5720  -13.0730 O.2   215  GLY215     -0.2863
    171  N          1.5300   41.5190  -13.2150 N.3   218  PHE218     -0.1227
    172  CA         1.8750   41.9930  -14.5510 C.3   218  PHE218      0.1736
    173  C          0.6490   42.4520  -15.3280 C.2   218  PHE218      0.2595
    174  O          0.7720   43.1120  -16.3630 O.2   218  PHE218     -0.2718
    175  CB         2.5700   40.8830  -15.3510 C.3   218  PHE218      0.0547
    176  CG         3.3150   39.8860  -14.5030 C.ar  218  PHE218     -0.0202
    177  CD1        2.6260   38.9130  -13.7810 C.ar  218  PHE218     -0.0042
    178  CD2        4.7040   39.9180  -14.4270 C.ar  218  PHE218     -0.0042
    179  CE1        3.3110   37.9860  -12.9960 C.ar  218  PHE218     -0.0003
    180  CE2        5.3950   38.9970  -13.6470 C.ar  218  PHE218     -0.0003
    181  CZ         4.6970   38.0280  -12.9290 C.ar  218  PHE218     -0.0000
    182  N         -0.5300   42.0990  -14.8240 N.am  219  ASN219     -0.1974
    183  CA        -1.7840   42.4460  -15.4790 C.3   219  ASN219      0.1688
    184  C         -2.5490   43.5790  -14.8010 C.2   219  ASN219      0.2292
    185  O         -2.9810   44.5190  -15.4650 O.2   219  ASN219     -0.2864
    186  CB        -2.6710   41.2010  -15.5780 C.3   219  ASN219      0.1181
    187  CG        -2.0320   40.0930  -16.4110 C.2   219  ASN219      0.2629
    188  OD1       -1.7870   40.2640  -17.6090 O.2   219  ASN219     -0.2716
    189  ND2       -1.7560   38.9530  -15.7780 N.am  219  ASN219     -0.0877
    190  N          9.9890   39.7760  -11.8490 N.3   243  GLU243     -0.1245
    191  CA         9.5280   38.6350  -11.0740 C.3   243  GLU243      0.1567
    192  C         10.6330   38.1480  -10.1580 C.2   243  GLU243      0.2260
    193  O         10.3660   37.7440   -9.0360 O.2   243  GLU243     -0.2867
    194  CB         9.1210   37.5260  -12.0270 C.3   243  GLU243      0.0388
    195  CG         8.5000   38.0940  -13.2800 C.3   243  GLU243      0.1160
    196  CD         8.6210   37.1840  -14.4800 C.2   243  GLU243      0.3649
    197  OE1        8.3710   37.6700  -15.6080 O.co2 243  GLU243     -0.2457
    198  OE2        8.9570   35.9900  -14.3030 O.co2 243  GLU243     -0.2457
    199  N          6.8820   29.7730   -3.3600 N.3   260  ILE260     -0.1231
    200  CA         6.2500   28.7250   -4.1520 C.3   260  ILE260      0.1692
    201  C          5.9950   29.2120   -5.5740 C.2   260  ILE260      0.2592
    202  O          5.2820   30.1920   -5.8070 O.2   260  ILE260     -0.2718
    203  CB         4.8950   28.2710   -3.5420 C.3   260  ILE260      0.0266
    204  CG1        5.0550   27.9470   -2.0580 C.3   260  ILE260      0.0019
    205  CG2        4.4040   27.0310   -4.2560 C.3   260  ILE260      0.0020
    206  CD1        3.7660   27.5390   -1.3850 C.3   260  ILE260      0.0001
    207  N          6.5910   28.5100   -6.5220 N.am  261  ILE261     -0.1966
    208  CA         6.4560   28.8460   -7.9220 C.3   261  ILE261      0.1727
    209  C          5.1530   28.2370   -8.4360 C.2   261  ILE261      0.2617
    210  O          4.8570   27.0760   -8.1710 O.2   261  ILE261     -0.2715
    211  CB         7.6840   28.3200   -8.7050 C.3   261  ILE261      0.0290
    212  CG1        8.9650   28.8310   -8.0370 C.3   261  ILE261      0.0022
    213  CG2        7.6390   28.8010  -10.1400 C.3   261  ILE261      0.0023
    214  CD1       10.2510   28.3270   -8.6360 C.3   261  ILE261      0.0001
    215  N          4.3660   29.0330   -9.1530 N.am  262  GLY262     -0.1940
    216  CA         3.0960   28.5510   -9.6710 C.3   262  GLY262      0.2014
    217  C          3.0120   28.4710  -11.1820 C.2   262  GLY262      0.2640
    218  O          1.9980   28.0370  -11.7240 O.2   262  GLY262     -0.2714
    219  N          4.0800   28.8770  -11.8620 N.am  263  SER263     -0.1935
    220  CA         4.1290   28.8540  -13.3210 C.3   263  SER263      0.2055
    221  C          4.2040   27.4500  -13.9090 C.2   263  SER263      0.2644
    222  O          4.8370   26.5580  -13.3400 O.2   263  SER263     -0.2714
    223  CB         5.3230   29.6550  -13.8160 C.3   263  SER263      0.2130
    224  OG         5.4470   29.5380  -15.2190 O.3   263  SER263     -0.2179
    225  N          3.5620   27.2710  -15.0620 N.am  264  GLY264     -0.1939
    226  CA         3.5550   25.9780  -15.7300 C.3   264  GLY264      0.2014
    227  C          4.5810   25.8620  -16.8460 C.2   264  GLY264      0.2638
    228  O          4.6430   24.8510  -17.5570 O.2   264  GLY264     -0.2714
    229  N          5.3860   26.9090  -16.9970 N.am  265  LYS265     -0.1977
    230  CA         6.4250   26.9550  -18.0130 C.3   265  LYS265      0.1596
    231  C          7.7540   26.7230  -17.3200 C.2   265  LYS265      0.2287
    232  O          8.1580   27.5130  -16.4710 O.2   265  LYS265     -0.2864
    233  CB         6.4100   28.3200  -18.6980 C.3   265  LYS265      0.0298
    234  CG         5.0660   28.6500  -19.3260 C.3   265  LYS265      0.0038
    235  CD         5.0760   30.0020  -20.0050 C.3   265  LYS265      0.0206
    236  CE         3.7930   30.2170  -20.7830 C.3   265  LYS265      0.1093
    237  NZ         2.6090   30.1010  -19.9000 N.3   265  LYS265     -0.1314
    238  N         10.1630   29.6340  -17.0710 N.3   268  ARG268     -0.1245
    239  CA         9.7820   30.6600  -16.1040 C.3   268  ARG268      0.1563
    240  C         10.1650   30.1480  -14.7270 C.2   268  ARG268      0.2260
    241  O         10.3990   30.9210  -13.7980 O.2   268  ARG268     -0.2867
    242  CB         8.2790   30.9240  -16.1550 C.3   268  ARG268      0.0307
    243  CG         7.8840   31.9720  -17.1640 C.3   268  ARG268      0.0489
    244  CD         6.3900   32.1750  -17.1860 C.3   268  ARG268      0.2205
    245  NE         6.0120   33.2680  -18.0800 N.pl3 268  ARG268     -0.0865
    246  CZ         4.7620   33.5510  -18.4410 C.cat 268  ARG268      0.5346
    247  NH1        3.7530   32.8180  -17.9890 N.pl3 268  ARG268      0.1354
    248  NH2        4.5170   34.5700  -19.2560 N.pl3 268  ARG268      0.1354
@<TRIPOS>BOND
     1   236   235    1
     2   236   237    1
     3   235   234    1
     4    45    44    2
     5   234   233    1
     6   248   246    1
     7    44    43    1
     8   233   230    1
     9   246   245    2
    10   246   247    1
    11   245   244    1
    12   230   231    1
    13   230   229    1
    14    43    46    1
    15    43    42    1
    16   188   187    2
    17   228   227    2
    18   231   232    2
    19   244   243    1
    20   243   242    1
    21   238   239    1
    22    46    47    1
    23   229   227   am
    24   227   226    1
    25   187   189   am
    26   187   186    1
    27   174   173    2
    28   242   239    1
    29   239   240    1
    30    47    48   ar
    31    47    49   ar
    32   226   225    1
    33    48    50   ar
    34   197   196   ar
    35   186   183    1
    36   183   182    1
    37   183   184    1
    38   185   184    2
    39   175   172    1
    40   175   176    1
    41   173   182   am
    42   173   172    1
    43   224   223    1
    44   225   221   am
    45   240   241    2
    46    49    52   ar
    47    49    51   ar
    48   172   171    1
    49   176   178   ar
    50   176   177   ar
    51   196   198   ar
    52   196   195    1
    53   178   180   ar
    54    50    51   ar
    55    52    54   ar
    56   221   222    2
    57   221   220    1
    58    34    33    2
    59   223   220    1
    60    51    53   ar
    61   177   179   ar
    62   180   181   ar
    63   220   219    1
    64   195   194    1
    65   170   169    2
    66    54    55   ar
    67   179   181   ar
    68    33    32    1
    69    53    55   ar
    70    35    32    1
    71    35    36    1
    72   194   191    1
    73   169   168    1
    74   219   217   am
    75   190   191    1
    76    41    39    1
    77    32    31    1
    78   218   217    2
    79    36    37    1
    80   168   167    1
    81   217   216    1
    82   191   192    1
    83    14    12   ar
    84    14    15   ar
    85   166   165    2
    86    37    38    1
    87   161   160    1
    88    16    15    1
    89    12    10   ar
    90    39    38    2
    91    39    40    1
    92    31    19   am
    93   167   165   am
    94   192   193    2
    95   213   211    1
    96    15    13   ar
    97   165   164    1
    98   216   215    1
    99    20    19    2
   100    19    18    1
   101   160   159    1
   102   160   162    1
   103   215   209   am
   104    10     9    1
   105    10    11   ar
   106   159   156    1
   107     4     3    2
   108   158   157    2
   109    13    11   ar
   110   211   212    1
   111   211   208    1
   112   214   212    1
   113     9     6    1
   114     6     7    1
   115     6     5    1
   116   209   210    2
   117   209   208    1
   118   164   163    1
   119     7    17   am
   120     7     8    2
   121    17    18    1
   122    18    21    1
   123   208   207    1
   124   156   157    1
   125   156   155    1
   126     3     5   am
   127     3     2    1
   128    21    22    1
   129    67    66    2
   130    22    24   ar
   131    22    23   ar
   132    66    65    1
   133    27    24   ar
   134    27    29   ar
   135    24    26   ar
   136    23    25   ar
   137     1     2    1
   138    29    30   ar
   139    26    25   ar
   140    26    28   ar
   141    30    28   ar
   142   155   151   am
   143   207   201   am
   144   202   201    2
   145    65    68    1
   146    65    64    1
   147    68    69    1
   148   151   152    2
   149   151   150    1
   150   201   200    1
   151    59    58    2
   152    69    71   ar
   153    69    70   ar
   154   148   147    1
   155    71    73   ar
   156   144   145    1
   157   144   147    1
   158   144   143    1
   159   153   150    1
   160   153   154    1
   161   149   145   am
   162   149   150    1
   163   145   146    2
   164    70    72   ar
   165   205   203    1
   166   200   203    1
   167   200   199    1
   168    56    57    1
   169    73    74   ar
   170   143   131   am
   171    58    57    1
   172   203   204    1
   173    72    74   ar
   174    74    75    1
   175    57    60    1
   176    60    61    1
   177    63    61   ar
   178   131   132    2
   179   131   130    1
   180   204   206    1
   181    61    62   ar
   182   139   141   ar
   183   139   136   ar
   184   130   133    1
   185   130   129    1
   186   141   142   ar
   187   133   134    1
   188   136   134   ar
   189   136   138   ar
   190    84    83    1
   191   142   140   ar
   192   134   135   ar
   193    94    93   ar
   194    94    92   ar
   195   128   126   am
   196   138   140   ar
   197   138   137   ar
   198    93    91   ar
   199    83    82    1
   200   135   137   ar
   201    92    90   ar
   202   126   127    2
   203   126   125    1
   204   105   103    1
   205    82    81    1
   206    76    77    1
   207    91    90   ar
   208    81    80    1
   209    79    78    2
   210   125   124    1
   211    90    89    1
   212    80    77    1
   213   103   104    1
   214   103   102    2
   215    78    77    1
   216   102   101    1
   217   124   121    1
   218    89    86    1
   219   118   117    2
   220   119   117   am
   221   111   110    1
   222   122   123    2
   223   122   121    1
   224   117   116    1
   225   121   120    1
   226    86    87    1
   227    86    85    1
   228    88    87    2
   229   101   100    1
   230    87    95   am
   231   110   107    1
   232    99   100    1
   233    99    96    1
   234   116   113    1
   235    95    96    1
   236    96    97    1
   237   107   108    1
   238   107   106    1
   239   112   108   am
   240   112   113    1
   241   108   109    2
   242   113   114    1
   243    97    98    2
   244   114   115    2
