@<TRIPOS>MOLECULE
tmp/1ogdD00.pdb
 80 78 0 0 0
SMALL
GASTEIGER

@<TRIPOS>ATOM
      1  N         41.6590   14.0960  -22.9610 N.3    28  ASP28      -0.1239
      2  CA        41.8830   14.7850  -24.2250 C.3    28  ASP28       0.1674
      3  C         42.6800   16.0310  -23.8560 C.2    28  ASP28       0.2266
      4  O         42.9430   16.2740  -22.6730 O.2    28  ASP28      -0.2867
      5  CB        40.5510   15.1280  -24.9270 C.3    28  ASP28       0.1410
      6  CG        39.6070   15.9700  -24.0720 C.2    28  ASP28       0.3668
      7  OD1       38.4010   15.6490  -24.0490 O.co2  28  ASP28      -0.2456
      8  OD2       40.0460   16.9560  -23.4460 O.co2  28  ASP28      -0.2456
      9  N         41.9400   19.0490  -23.5520 N.3    30  GLY30      -0.1210
     10  CA        41.3020   20.1320  -22.8310 C.3    30  GLY30       0.1956
     11  C         40.8320   19.8820  -21.4110 C.2    30  GLY30       0.2612
     12  O         40.4390   20.8210  -20.7270 O.2    30  GLY30      -0.2717
     13  N         40.8660   18.6390  -20.9530 N.am   31  LEU31      -0.1966
     14  CA        40.4020   18.3530  -19.6020 C.3    31  LEU31       0.1713
     15  C         41.2320   19.0630  -18.5320 C.2    31  LEU31       0.2458
     16  O         42.4600   19.0770  -18.5910 O.2    31  LEU31      -0.2730
     17  CB        40.4350   16.8490  -19.3250 C.3    31  LEU31       0.0310
     18  CG        39.8160   16.4710  -17.9770 C.3    31  LEU31       0.0022
     19  CD1       38.3150   16.5840  -18.0830 C.3    31  LEU31       0.0001
     20  CD2       40.2110   15.0600  -17.5840 C.3    31  LEU31       0.0001
     21  N         40.5680   19.6910  -17.5540 N.am   32  PRO32      -0.2727
     22  CA        41.3490   20.3620  -16.5110 C.3    32  PRO32       0.1402
     23  C         41.8320   19.2740  -15.5490 C.2    32  PRO32       0.2269
     24  O         41.1460   18.2730  -15.3570 O.2    32  PRO32      -0.2865
     25  CB        40.3310   21.2890  -15.8650 C.3    32  PRO32       0.0296
     26  CG        39.0560   20.4740  -15.9520 C.3    32  PRO32       0.0237
     27  CD        39.1230   19.9200  -17.3700 C.3    32  PRO32       0.0939
     28  N         29.3370   14.6030  -17.4520 N.3    98  HIS98      -0.1241
     29  CA        30.6930   15.1200  -17.4680 C.3    98  HIS98       0.1621
     30  C         31.0230   15.8080  -16.1460 C.2    98  HIS98       0.2264
     31  O         32.1610   15.7620  -15.6840 O.2    98  HIS98      -0.2867
     32  CB        30.8730   16.1120  -18.6120 C.3    98  HIS98       0.0745
     33  CG        32.2700   16.6300  -18.7400 C.ar   98  HIS98       0.0817
     34  ND1       33.3490   15.8080  -18.9830 N.ar   98  HIS98      -0.2268
     35  CD2       32.7630   17.8890  -18.6790 C.ar   98  HIS98       0.1154
     36  CE1       34.4460   16.5380  -19.0700 C.ar   98  HIS98       0.1986
     37  NE2       34.1170   17.8050  -18.8890 N.ar   98  HIS98      -0.2212
     38  N         34.2310   14.7630  -13.8410 N.3   102  LYS102     -0.1245
     39  CA        35.3040   15.6450  -13.3850 C.3   102  LYS102      0.1561
     40  C         35.5450   15.4980  -11.8810 C.2   102  LYS102      0.2260
     41  O         36.6890   15.4820  -11.4300 O.2   102  LYS102     -0.2867
     42  CB        34.9760   17.1040  -13.7260 C.3   102  LYS102      0.0271
     43  CG        35.3360   17.5000  -15.1490 C.3   102  LYS102      0.0035
     44  CD        34.6380   18.7840  -15.5900 C.3   102  LYS102      0.0206
     45  CE        35.0360   19.9790  -14.7470 C.3   102  LYS102      0.1093
     46  NZ        34.3620   21.2240  -15.2180 N.3   102  LYS102     -0.1314
     47  N         39.0860   16.0400  -29.7490 N.3   118  THR118     -0.1204
     48  CA        37.6690   15.7900  -29.9570 C.3   118  THR118      0.1979
     49  C         37.0060   15.7830  -28.5830 C.2   118  THR118      0.2460
     50  O         37.6030   15.3430  -27.6030 O.2   118  THR118     -0.2732
     51  CB        37.4190   14.4480  -30.6790 C.3   118  THR118      0.1783
     52  OG1       37.8770   13.3610  -29.8660 O.3   118  THR118     -0.2211
     53  CG2       38.1570   14.4270  -32.0030 C.3   118  THR118      0.0376
     54  N         35.7580   16.2720  -28.5000 N.am  119  PRO119     -0.2717
     55  CA        34.9320   16.3800  -27.2940 C.3   119  PRO119      0.1535
     56  C         34.7370   15.1460  -26.4280 C.2   119  PRO119      0.2598
     57  O         34.4680   14.0510  -26.9260 O.2   119  PRO119     -0.2715
     58  CB        33.5920   16.8850  -27.8330 C.3   119  PRO119      0.0310
     59  CG        33.9780   17.6430  -29.0550 C.3   119  PRO119      0.0237
     60  CD        34.9950   16.7240  -29.6770 C.3   119  PRO119      0.0939
     61  N         34.8450   15.3600  -25.1190 N.am  120  TYR120     -0.1974
     62  CA        34.6460   14.3240  -24.1130 C.3   120  TYR120      0.1639
     63  C         35.4070   13.0250  -24.3200 C.2   120  TYR120      0.2290
     64  O         34.9370   11.9550  -23.9300 O.2   120  TYR120     -0.2864
     65  CB        33.1580   14.0250  -23.9800 C.3   120  TYR120      0.0560
     66  CG        32.3330   15.2720  -23.7720 C.ar  120  TYR120     -0.0198
     67  CD1       31.8390   15.9940  -24.8590 C.ar  120  TYR120     -0.0009
     68  CD2       32.0840   15.7580  -22.4860 C.ar  120  TYR120     -0.0009
     69  CE1       31.1190   17.1720  -24.6700 C.ar  120  TYR120      0.0417
     70  CE2       31.3700   16.9300  -22.2870 C.ar  120  TYR120      0.0417
     71  CZ        30.8910   17.6340  -23.3810 C.ar  120  TYR120      0.1957
     72  OH        30.2050   18.8080  -23.1800 O.3   120  TYR120     -0.2866
     73  N         37.6020   11.3160  -22.8190 N.3   122  ASN122     -0.1240
     74  CA        38.2690   11.0340  -21.5480 C.3   122  ASN122      0.1653
     75  C         37.6410    9.8090  -20.9110 C.2   122  ASN122      0.2266
     76  O         36.4700    9.5060  -21.1440 O.2   122  ASN122     -0.2867
     77  CB        38.0910   12.1850  -20.5430 C.3   122  ASN122      0.1155
     78  CG        38.3320   13.5440  -21.1490 C.2   122  ASN122      0.2627
     79  OD1       37.3880   14.2480  -21.5170 O.2   122  ASN122     -0.2716
     80  ND2       39.5910   13.9240  -21.2610 N.am  122  ASN122     -0.0877
@<TRIPOS>BOND
     1    53    51    1
     2    51    48    1
     3    51    52    1
     4    48    47    1
     5    48    49    1
     6    60    59    1
     7    60    54    1
     8    59    58    1
     9    49    54   am
    10    49    50    2
    11    54    55    1
    12    58    55    1
    13    55    56    1
    14    57    56    2
    15    56    61   am
    16    61    62    1
    17     5     2    1
    18     5     6    1
    19    67    69   ar
    20    67    66   ar
    21    69    71   ar
    22    63    62    1
    23    63    64    2
    24     2     3    1
    25     2     1    1
    26    62    65    1
    27     6     7   ar
    28     6     8   ar
    29    65    66    1
    30     3     4    2
    31    66    68   ar
    32     9    10    1
    33    71    72    1
    34    71    70   ar
    35    10    11    1
    36    73    74    1
    37    68    70   ar
    38    74    75    1
    39    74    77    1
    40    79    78    2
    41    11    13   am
    42    11    12    2
    43    80    78   am
    44    78    77    1
    45    76    75    2
    46    13    14    1
    47    14    17    1
    48    14    15    1
    49    17    18    1
    50    36    34   ar
    51    36    37   ar
    52    34    33   ar
    53    37    35   ar
    54    33    35   ar
    55    33    32    1
    56    32    29    1
    57    16    15    2
    58    15    21   am
    59    19    18    1
    60    18    20    1
    61    21    27    1
    62    21    22    1
    63    29    28    1
    64    29    30    1
    65    27    26    1
    66    22    25    1
    67    22    23    1
    68    30    31    2
    69    26    25    1
    70    44    43    1
    71    44    45    1
    72    23    24    2
    73    46    45    1
    74    43    42    1
    75    38    39    1
    76    42    39    1
    77    39    40    1
    78    40    41    2
