@<TRIPOS>MOLECULE
tmp/1ogkD00.pdb
 180 168 0 0 0
SMALL
GASTEIGER

@<TRIPOS>ATOM
      1  N         29.1630   15.6390   86.7550 N.3    13  GLN13      -0.1245
      2  CA        27.8440   16.1740   86.9780 C.3    13  GLN13       0.1566
      3  C         27.7000   17.5280   86.3350 C.2    13  GLN13       0.2260
      4  O         26.6870   17.7880   85.7150 O.2    13  GLN13      -0.2867
      5  CB        27.5230   16.2490   88.4730 C.3    13  GLN13       0.0367
      6  CG        26.0680   16.6500   88.7680 C.3    13  GLN13       0.0905
      7  CD        25.0960   15.7700   88.0560 C.2    13  GLN13       0.2608
      8  OE1       25.2880   14.5610   87.9790 O.2    13  GLN13      -0.2717
      9  NE2       24.0530   16.3690   87.5170 N.am   13  GLN13      -0.0878
     10  N         27.2510   17.0970   82.5590 N.3    16  LEU16      -0.1231
     11  CA        25.9430   16.6090   82.1830 C.3    16  LEU16       0.1693
     12  C         24.9200   17.7410   82.2690 C.2    16  LEU16       0.2592
     13  O         24.0420   17.8520   81.4130 O.2    16  LEU16      -0.2718
     14  CB        25.5190   15.4760   83.0990 C.3    16  LEU16       0.0284
     15  CG        24.5290   14.3740   82.6570 C.3    16  LEU16       0.0019
     16  CD1       23.5890   14.0790   83.8420 C.3    16  LEU16       0.0001
     17  CD2       23.7200   14.7050   81.4150 C.3    16  LEU16       0.0001
     18  N         25.0170   18.5650   83.3240 N.am   17  ASN17      -0.1974
     19  CA        24.0990   19.6820   83.5020 C.3    17  ASN17       0.1688
     20  C         24.3180   20.6930   82.3610 C.2    17  ASN17       0.2292
     21  O         23.3540   21.2510   81.8280 O.2    17  ASN17      -0.2864
     22  CB        24.2600   20.3340   84.8790 C.3    17  ASN17       0.1181
     23  CG        23.8250   19.4380   86.0570 C.2    17  ASN17       0.2629
     24  OD1       23.1770   18.3970   85.8830 O.2    17  ASN17      -0.2716
     25  ND2       24.1830   19.8650   87.2800 N.am   17  ASN17      -0.0877
     26  N         22.4690   19.8910   79.2720 N.3    20  MET20      -0.1245
     27  CA        21.0590   20.2130   79.2880 C.3    20  MET20       0.1570
     28  C         20.8000   21.6940   79.0510 C.2    20  MET20       0.2261
     29  O         19.9980   22.0330   78.2090 O.2    20  MET20      -0.2867
     30  CB        20.5330   19.7460   80.6140 C.3    20  MET20       0.0387
     31  CG        20.9820   18.3230   80.8350 C.3    20  MET20       0.0595
     32  SD        19.6480   17.3290   81.2690 S.3    20  MET20      -0.1393
     33  CE        20.2940   15.7480   81.6920 C.3    20  MET20       0.0692
     34  N         19.4060   27.9000   86.6480 N.3    28  ARG28      -0.1245
     35  CA        18.9620   26.9680   87.7050 C.3    28  ARG28       0.1563
     36  C         18.9170   27.6390   89.0630 C.2    28  ARG28       0.2260
     37  O         19.4060   28.7330   89.1910 O.2    28  ARG28      -0.2867
     38  CB        19.9300   25.8000   87.7850 C.3    28  ARG28       0.0307
     39  CG        19.3360   24.4950   88.0950 C.3    28  ARG28       0.0489
     40  CD        18.5750   23.8920   86.9370 C.3    28  ARG28       0.2205
     41  NE        17.2750   24.5570   86.7000 N.pl3  28  ARG28      -0.0865
     42  CZ        16.7180   24.7670   85.5080 C.cat  28  ARG28       0.5346
     43  NH1       17.3210   24.3850   84.3900 N.pl3  28  ARG28       0.1354
     44  NH2       15.5610   25.3720   85.4230 N.pl3  28  ARG28       0.1354
     45  N         16.8890   21.7760   92.6850 N.3    33  TRP33      -0.1241
     46  CA        17.5510   20.5410   93.1150 C.3    33  TRP33       0.1605
     47  C         16.8810   19.9050   94.3090 C.2    33  TRP33       0.2264
     48  O         16.8880   18.6780   94.4430 O.2    33  TRP33      -0.2867
     49  CB        19.0110   20.8330   93.4530 C.3    33  TRP33       0.0550
     50  CG        19.6860   21.5050   92.3400 C.ar   33  TRP33       0.0003
     51  CD1       20.2160   22.7410   92.3360 C.ar   33  TRP33       0.0946
     52  CD2       19.8500   20.9970   91.0280 C.ar   33  TRP33       0.0152
     53  NE1       20.7310   23.0390   91.0990 N.ar   33  TRP33      -0.2442
     54  CE2       20.5070   21.9760   90.2750 C.ar   33  TRP33       0.0810
     55  CE3       19.5150   19.8000   90.4080 C.ar   33  TRP33       0.0012
     56  CZ2       20.8500   21.7890   88.9520 C.ar   33  TRP33       0.0191
     57  CZ3       19.8480   19.6200   89.0980 C.ar   33  TRP33       0.0001
     58  CH2       20.5100   20.6020   88.3840 C.ar   33  TRP33       0.0015
     59  N         12.4630   12.1520   93.2120 N.3    40  GLU40      -0.1245
     60  CA        13.1720   10.8830   92.9470 C.3    40  GLU40       0.1567
     61  C         13.2030   10.0830   94.2690 C.2    40  GLU40       0.2260
     62  O         13.3520    8.8730   94.2480 O.2    40  GLU40      -0.2867
     63  CB        14.5740   11.1490   92.3120 C.3    40  GLU40       0.0388
     64  CG        14.8420   10.5840   90.8910 C.3    40  GLU40       0.1160
     65  CD        13.8780   10.9680   89.7570 C.2    40  GLU40       0.3649
     66  OE1       13.4500   12.1360   89.6800 O.co2  40  GLU40      -0.2457
     67  OE2       13.5720   10.0880   88.9440 O.co2  40  GLU40      -0.2457
     68  N          9.7830    8.5050   94.2990 N.3    43  GLU43      -0.1245
     69  CA         9.7590    7.4580   93.2980 C.3    43  GLU43       0.1567
     70  C         10.6070    6.2330   93.8160 C.2    43  GLU43       0.2260
     71  O         10.3170    5.1020   93.4920 O.2    43  GLU43      -0.2867
     72  CB        10.1140    8.1230   91.9320 C.3    43  GLU43       0.0388
     73  CG        10.6350    7.2970   90.7540 C.3    43  GLU43       0.1160
     74  CD        10.9210    8.1510   89.4790 C.2    43  GLU43       0.3649
     75  OE1       10.2670    9.1280   89.1490 O.co2  43  GLU43      -0.2457
     76  OE2       11.8590    7.9170   88.7440 O.co2  43  GLU43      -0.2457
     77  N         17.3970    4.5900   91.2940 N.3    68  GLU68      -0.1245
     78  CA        16.8820    5.8390   91.7990 C.3    68  GLU68       0.1567
     79  C         17.8620    6.3840   92.8670 C.2    68  GLU68       0.2260
     80  O         17.7990    7.5890   93.1660 O.2    68  GLU68      -0.2867
     81  CB        15.3970    5.7230   92.2610 C.3    68  GLU68       0.0388
     82  CG        14.2790    5.7340   91.1570 C.3    68  GLU68       0.1160
     83  CD        14.3560    6.7290   89.9940 C.2    68  GLU68       0.3649
     84  OE1       14.3660    6.2780   88.8280 O.co2  68  GLU68      -0.2457
     85  OE2       14.4040    7.9480   90.2710 O.co2  68  GLU68      -0.2457
     86  N         20.2140    8.2670   90.8020 N.3    71  ASP71      -0.1239
     87  CA        19.5380    9.4890   90.3640 C.3    71  ASP71       0.1674
     88  C         19.5380   10.5800   91.4270 C.2    71  ASP71       0.2266
     89  O         19.6870   11.7380   91.1210 O.2    71  ASP71      -0.2867
     90  CB        18.0750    9.2040   90.0120 C.3    71  ASP71       0.1410
     91  CG        17.9030    8.4780   88.6990 C.2    71  ASP71       0.3668
     92  OD1       18.8020    8.5910   87.8210 O.co2  71  ASP71      -0.2456
     93  OD2       16.8550    7.7860   88.4780 O.co2  71  ASP71      -0.2456
     94  N         23.0010   12.2110   91.4260 N.3    74  HIS74      -0.1226
     95  CA        23.0890   13.1740   90.3450 C.3    74  HIS74       0.1752
     96  C         22.5640   14.5220   90.8320 C.2    74  HIS74       0.2596
     97  O         23.1510   15.5340   90.5590 O.2    74  HIS74      -0.2718
     98  CB        22.2210   12.7220   89.1650 C.3    74  HIS74       0.0759
     99  CG        22.8960   11.8370   88.1420 C.ar   74  HIS74       0.0818
    100  ND1       23.0580   10.4840   88.3160 N.ar   74  HIS74      -0.2268
    101  CD2       23.3340   12.0990   86.8850 C.ar   74  HIS74       0.1154
    102  CE1       23.6180    9.9620   87.2400 C.ar   74  HIS74       0.1986
    103  NE2       23.7780   10.9180   86.3480 N.ar   74  HIS74      -0.2212
    104  N         21.4410   14.5370   91.5410 N.am   75  PHE75      -0.1976
    105  CA        20.8340   15.7910   92.0250 C.3    75  PHE75       0.1639
    106  C         21.5570   16.4580   93.2090 C.2    75  PHE75       0.2290
    107  O         21.6140   17.6830   93.2660 O.2    75  PHE75      -0.2864
    108  CB        19.3490   15.6010   92.3540 C.3    75  PHE75       0.0560
    109  CG        18.4890   15.4060   91.1490 C.ar   75  PHE75      -0.0200
    110  CD1       18.4910   16.3300   90.1320 C.ar   75  PHE75      -0.0042
    111  CD2       17.6940   14.2790   91.0150 C.ar   75  PHE75      -0.0042
    112  CE1       17.7170   16.1400   88.9770 C.ar   75  PHE75      -0.0003
    113  CE2       16.9160   14.1000   89.8790 C.ar   75  PHE75      -0.0003
    114  CZ        16.9360   15.0350   88.8580 C.ar   75  PHE75      -0.0000
    115  N         24.0880    5.6240   84.4160 N.3   159  LYS159     -0.1245
    116  CA        22.9770    6.5290   84.3150 C.3   159  LYS159      0.1561
    117  C         23.3820    7.9170   83.7620 C.2   159  LYS159      0.2260
    118  O         22.6040    8.5600   83.0730 O.2   159  LYS159     -0.2867
    119  CB        22.3580    6.6440   85.7080 C.3   159  LYS159      0.0271
    120  CG        21.0940    7.4620   85.7860 C.3   159  LYS159      0.0035
    121  CD        20.0060    6.8700   84.9010 C.3   159  LYS159      0.0206
    122  CE        18.7850    7.7550   84.8250 C.3   159  LYS159      0.1093
    123  NZ        17.7320    7.2260   85.6990 N.3   159  LYS159     -0.1314
    124  N         21.4780    9.5140   80.7260 N.3   163  ASN163     -0.1240
    125  CA        20.9490   10.8420   80.7410 C.3   163  ASN163      0.1653
    126  C         21.3370   11.6490   79.4810 C.2   163  ASN163      0.2266
    127  O         20.5380   12.4170   78.9780 O.2   163  ASN163     -0.2867
    128  CB        21.3900   11.5520   82.0150 C.3   163  ASN163      0.1155
    129  CG        20.5810   11.1720   83.1960 C.2   163  ASN163      0.2627
    130  OD1       21.1150   11.0150   84.2850 O.2   163  ASN163     -0.2716
    131  ND2       19.2710   11.0590   83.0140 N.am  163  ASN163     -0.0877
    132  N         19.5570   10.1300   76.2690 N.3   166  ARG166     -0.1245
    133  CA        18.1940   10.5920   76.2780 C.3   166  ARG166      0.1563
    134  C         18.0430   11.9760   75.5690 C.2   166  ARG166      0.2260
    135  O         17.1560   12.1730   74.7470 O.2   166  ARG166     -0.2867
    136  CB        17.7080   10.6660   77.7370 C.3   166  ARG166      0.0307
    137  CG        17.0190    9.4430   78.2480 C.3   166  ARG166      0.0489
    138  CD        16.8930    9.4760   79.7260 C.3   166  ARG166      0.2205
    139  NE        16.2930    8.2850   80.2720 N.pl3 166  ARG166     -0.0865
    140  CZ        15.9500    8.1500   81.5320 C.cat 166  ARG166      0.5346
    141  NH1       16.1770    9.1520   82.3840 N.pl3 166  ARG166      0.1354
    142  NH2       15.3830    7.0090   81.9460 N.pl3 166  ARG166      0.1354
    143  N         14.4240   13.3410   74.2540 N.3   171  TYR171     -0.1241
    144  CA        13.8160   13.3460   75.5700 C.3   171  TYR171      0.1605
    145  C         13.2870   14.7420   75.9090 C.2   171  TYR171      0.2264
    146  O         12.2900   14.8700   76.5240 O.2   171  TYR171     -0.2867
    147  CB        14.8260   12.9220   76.6070 C.3   171  TYR171      0.0534
    148  CG        14.2860   12.4030   77.9010 C.ar  171  TYR171     -0.0201
    149  CD1       14.4420   13.1370   79.0840 C.ar  171  TYR171     -0.0009
    150  CD2       13.7200   11.1340   77.9730 C.ar  171  TYR171     -0.0009
    151  CE1       14.0310   12.6440   80.2850 C.ar  171  TYR171      0.0417
    152  CE2       13.2750   10.6300   79.2010 C.ar  171  TYR171      0.0417
    153  CZ        13.4360   11.4000   80.3400 C.ar  171  TYR171      0.1957
    154  OH        13.0140   10.9130   81.5360 O.3   171  TYR171     -0.2866
    155  N         11.2470    5.3320   75.6590 N.3   178  LYS178     -0.1245
    156  CA        11.7500    4.9320   76.9640 C.3   178  LYS178      0.1561
    157  C         11.4690    3.4430   77.2000 C.2   178  LYS178      0.2260
    158  O         12.2800    2.7270   77.7340 O.2   178  LYS178     -0.2867
    159  CB        11.0880    5.7590   78.0360 C.3   178  LYS178      0.0271
    160  CG        11.7540    5.7250   79.3530 C.3   178  LYS178      0.0035
    161  CD        11.5880    7.0980   80.0300 C.3   178  LYS178      0.0206
    162  CE        11.4810    6.9690   81.5290 C.3   178  LYS178      0.1093
    163  NZ        11.6250    8.2950   82.1510 N.3   178  LYS178     -0.1314
    164  N         11.8330   -0.8390   80.4430 N.3   184  GLU184     -0.1245
    165  CA        12.2930    0.5110   80.4430 C.3   184  GLU184      0.1567
    166  C         13.8080    0.6590   80.2500 C.2   184  GLU184      0.2260
    167  O         14.5850   -0.2150   80.4950 O.2   184  GLU184     -0.2867
    168  CB        11.9010    1.1020   81.7740 C.3   184  GLU184      0.0388
    169  CG        12.0970    2.5760   81.8680 C.3   184  GLU184      0.1160
    170  CD        11.5890    3.0970   83.1770 C.2   184  GLU184      0.3649
    171  OE1       12.2840    2.9280   84.2220 O.co2 184  GLU184     -0.2457
    172  OE2       10.4840    3.6680   83.1400 O.co2 184  GLU184     -0.2457
    173  N         16.2410    2.2510   82.0020 N.3   186  ASN186     -0.1240
    174  CA        17.1270    2.1800   83.1310 C.3   186  ASN186      0.1653
    175  C         17.5270    0.7860   83.3840 C.2   186  ASN186      0.2266
    176  O         18.6120    0.5210   83.7780 O.2   186  ASN186     -0.2867
    177  CB        16.3630    2.6580   84.3530 C.3   186  ASN186      0.1155
    178  CG        16.2550    4.1470   84.4140 C.2   186  ASN186      0.2627
    179  OD1       17.2550    4.8570   84.4180 O.2   186  ASN186     -0.2716
    180  ND2       15.0470    4.6350   84.4840 N.am  186  ASN186     -0.0877
@<TRIPOS>BOND
     1   143   144    1
     2   135   134    2
     3   134   133    1
     4   144   145    1
     5   144   147    1
     6   155   156    1
     7   145   146    2
     8   132   133    1
     9   133   136    1
    10   147   148    1
    11   156   157    1
    12   156   159    1
    13   157   158    2
    14   136   137    1
    15   148   150   ar
    16   148   149   ar
    17   150   152   ar
    18   159   160    1
    19    29    28    2
    20   137   138    1
    21   127   126    2
    22    28    27    1
    23   149   151   ar
    24   152   153   ar
    25    26    27    1
    26    27    30    1
    27   160   161    1
    28   126   125    1
    29   138   139    1
    30   161   162    1
    31   166   165    1
    32   166   167    2
    33   139   140    2
    34   151   153   ar
    35   153   154    1
    36   165   164    1
    37   165   168    1
    38    30    31    1
    39   124   125    1
    40   125   128    1
    41    31    32    1
    42    32    33    1
    43    13    12    2
    44    17    15    1
    45   162   163    1
    46   140   142    1
    47   140   141    1
    48   168   169    1
    49    21    20    2
    50   169   170    1
    51   173   174    1
    52   128   129    1
    53    11    12    1
    54    11    10    1
    55    11    14    1
    56    12    18   am
    57    20    19    1
    58    15    14    1
    59    15    16    1
    60   131   129   am
    61   118   117    2
    62   174   175    1
    63   174   177    1
    64   172   170   ar
    65   170   171   ar
    66   129   130    2
    67    18    19    1
    68   175   176    2
    69    19    22    1
    70   117   116    1
    71   116   115    1
    72   116   119    1
    73   177   178    1
    74    43    42    1
    75   178   179    2
    76   178   180   am
    77   122   121    1
    78   122   123    1
    79    22    23    1
    80   121   120    1
    81    44    42    1
    82    42    41    2
    83   119   120    1
    84     4     3    2
    85    24    23    2
    86    23    25   am
    87     3     2    1
    88   103   101   ar
    89   103   102   ar
    90    34    35    1
    91    41    40    1
    92     1     2    1
    93   101    99   ar
    94    40    39    1
    95     2     5    1
    96   102   100   ar
    97     9     7   am
    98    35    38    1
    99    35    36    1
   100    38    39    1
   101    92    91   ar
   102     8     7    2
   103     7     6    1
   104    99   100   ar
   105    99    98    1
   106    58    56   ar
   107    58    57   ar
   108     5     6    1
   109    93    91   ar
   110    91    90    1
   111    76    74   ar
   112    84    83   ar
   113   114   112   ar
   114   114   113   ar
   115    67    65   ar
   116    56    54   ar
   117   112   110   ar
   118    36    37    2
   119    57    55   ar
   120    75    74   ar
   121    98    95    1
   122    74    73    1
   123    66    65   ar
   124    65    64    1
   125   113   111   ar
   126    83    85   ar
   127    83    82    1
   128    90    87    1
   129   110   109   ar
   130    54    52   ar
   131    54    53   ar
   132    95    96    1
   133    95    94    1
   134    87    86    1
   135    87    88    1
   136    55    52   ar
   137    97    96    2
   138    73    72    1
   139    96   104   am
   140    64    63    1
   141   111   109   ar
   142    52    50   ar
   143    53    51   ar
   144    89    88    2
   145   109   108    1
   146    82    81    1
   147    77    78    1
   148   104   105    1
   149    78    81    1
   150    78    79    1
   151    72    69    1
   152   105   108    1
   153   105   106    1
   154    63    60    1
   155    51    50   ar
   156    50    49    1
   157    45    46    1
   158    79    80    2
   159    60    59    1
   160    60    61    1
   161    46    49    1
   162    46    47    1
   163   106   107    2
   164    69    70    1
   165    69    68    1
   166    71    70    2
   167    62    61    2
   168    47    48    2
