@<TRIPOS>MOLECULE
tmp/1ogoA00.pdb
 140 134 0 0 0
SMALL
GASTEIGER

@<TRIPOS>ATOM
      1  N         10.8700    4.7370   -1.5310 N.3    84  ASP84      -0.1239
      2  CA        11.5310    5.9690   -1.9370 C.3    84  ASP84       0.1674
      3  C         12.6920    6.1330   -0.9790 C.2    84  ASP84       0.2266
      4  O         12.4920    6.3150    0.2220 O.2    84  ASP84      -0.2867
      5  CB        10.5430    7.1450   -1.8600 C.3    84  ASP84       0.1410
      6  CG        11.1070    8.4580   -2.4010 C.2    84  ASP84       0.3668
      7  OD1       12.3190    8.5420   -2.7160 O.co2  84  ASP84      -0.2456
      8  OD2       10.3860    9.4820   -2.5070 O.co2  84  ASP84      -0.2456
      9  N         20.5600    1.5570    2.3940 N.3   301  TYR301     -0.1227
     10  CA        19.6240    2.5110    2.9670 C.3   301  TYR301      0.1736
     11  C         18.9630    1.9160    4.2210 C.2   301  TYR301      0.2595
     12  O         18.4860    0.7790    4.1870 O.2   301  TYR301     -0.2718
     13  CB        18.5880    2.8600    1.9160 C.3   301  TYR301      0.0548
     14  CG        17.5120    3.8070    2.3830 C.ar  301  TYR301     -0.0200
     15  CD1       17.8340    4.9880    3.0520 C.ar  301  TYR301     -0.0009
     16  CD2       16.1710    3.5220    2.1590 C.ar  301  TYR301     -0.0009
     17  CE1       16.8380    5.8680    3.4660 C.ar  301  TYR301      0.0417
     18  CE2       15.1770    4.4040    2.5790 C.ar  301  TYR301      0.0417
     19  CZ        15.5250    5.5630    3.2430 C.ar  301  TYR301      0.1957
     20  OH        14.5450    6.4560    3.6640 O.3   301  TYR301     -0.2866
     21  N         18.9860    2.6650    5.3240 N.am  302  GLN302     -0.1979
     22  CA        18.3600    2.2700    6.6000 C.3   302  GLN302      0.1601
     23  C         18.9750    1.0350    7.2650 C.2   302  GLN302      0.2287
     24  O         18.3360    0.4110    8.1390 O.2   302  GLN302     -0.2864
     25  CB        16.8550    2.0150    6.4110 C.3   302  GLN302      0.0394
     26  CG        16.0880    3.1390    5.7720 C.3   302  GLN302      0.0908
     27  CD        14.6340    2.7780    5.4340 C.2   302  GLN302      0.2608
     28  OE1       14.3330    1.6790    4.9150 O.2   302  GLN302     -0.2717
     29  NE2       13.7380    3.7140    5.6820 N.am  302  GLN302     -0.0878
     30  N         13.6870   -0.2690    7.9670 N.3   313  LYS313     -0.1245
     31  CA        13.7570    0.8320    8.8990 C.3   313  LYS313      0.1561
     32  C         13.4160    0.3680   10.2970 C.2   313  LYS313      0.2260
     33  O         12.3950   -0.2830   10.4910 O.2   313  LYS313     -0.2867
     34  CB        12.7610    1.9220    8.5140 C.3   313  LYS313      0.0271
     35  CG        12.7880    3.1130    9.4260 C.3   313  LYS313      0.0035
     36  CD        11.8390    4.2160    8.9600 C.3   313  LYS313      0.0206
     37  CE        11.7120    5.2810   10.0400 C.3   313  LYS313      0.1093
     38  NZ        10.8520    6.4370    9.6120 N.3   313  LYS313     -0.1314
     39  N         17.2480    9.8190    2.1360 N.3   371  PHE371     -0.1227
     40  CA        16.3410   10.3100    3.1750 C.3   371  PHE371      0.1736
     41  C         16.8700    9.9240    4.5550 C.2   371  PHE371      0.2595
     42  O         17.6610    8.9820    4.7100 O.2   371  PHE371     -0.2718
     43  CB        14.9520    9.6750    3.0550 C.3   371  PHE371      0.0547
     44  CG        14.0230   10.2880    2.0480 C.ar  371  PHE371     -0.0202
     45  CD1       13.0280    9.4850    1.4890 C.ar  371  PHE371     -0.0042
     46  CD2       14.0410   11.6430    1.7160 C.ar  371  PHE371     -0.0042
     47  CE1       12.1000    9.9980    0.5980 C.ar  371  PHE371     -0.0003
     48  CE2       13.1030   12.1640    0.8230 C.ar  371  PHE371     -0.0003
     49  CZ        12.1290   11.3420    0.2670 C.ar  371  PHE371     -0.0000
     50  N         16.4250   10.6580    5.5660 N.am  372  GLN372     -0.1979
     51  CA        16.6640   10.3210    6.9710 C.3   372  GLN372      0.1601
     52  C         18.0970   10.5720    7.4470 C.2   372  GLN372      0.2287
     53  O         18.4660   10.1840    8.5480 O.2   372  GLN372     -0.2864
     54  CB        16.1760    8.8870    7.2730 C.3   372  GLN372      0.0394
     55  CG        14.6880    8.7110    6.9460 C.3   372  GLN372      0.0908
     56  CD        14.1440    7.3470    7.2930 C.2   372  GLN372      0.2608
     57  OE1       14.1980    6.4100    6.4840 O.2   372  GLN372     -0.2717
     58  NE2       13.6240    7.2260    8.4880 N.am  372  GLN372     -0.0878
     59  N         17.5450   15.2350    5.4300 N.3   393  ASP393     -0.1239
     60  CA        16.5540   15.2970    6.4930 C.3   393  ASP393      0.1674
     61  C         16.8680   16.4330    7.4630 C.2   393  ASP393      0.2266
     62  O         17.7160   17.2790    7.1830 O.2   393  ASP393     -0.2867
     63  CB        16.4230   13.9620    7.2260 C.3   393  ASP393      0.1410
     64  CG        14.9780   13.5960    7.4710 C.2   393  ASP393      0.3668
     65  OD1       14.3300   14.3310    8.2550 O.co2 393  ASP393     -0.2456
     66  OD2       14.4110   12.6250    6.9080 O.co2 393  ASP393     -0.2456
     67  N         14.1560   17.1140    1.7840 N.3   415  ASN415     -0.1225
     68  CA        13.2740   16.5660    2.8030 C.3   415  ASN415      0.1785
     69  C         13.4660   17.1880    4.1700 C.2   415  ASN415      0.2597
     70  O         14.5670   17.2460    4.6830 O.2   415  ASN415     -0.2718
     71  CB        13.4860   15.0550    2.8800 C.3   415  ASN415      0.1169
     72  CG        12.3970   14.3270    3.6900 C.2   415  ASN415      0.2627
     73  OD1       11.2140   14.4640    3.4160 O.2   415  ASN415     -0.2716
     74  ND2       12.8180   13.5300    4.6640 N.am  415  ASN415     -0.0877
     75  N         12.3560   17.6260    4.7530 N.am  416  ASP416     -0.1974
     76  CA        12.3180   18.1590    6.1220 C.3   416  ASP416      0.1709
     77  C         13.0160   19.5240    6.2020 C.2   416  ASP416      0.2293
     78  O         13.6260   19.9650    5.2320 O.2   416  ASP416     -0.2864
     79  CB        12.8710   17.1270    7.1300 C.3   416  ASP416      0.1436
     80  CG        11.7570   16.4230    7.9150 C.2   416  ASP416      0.3671
     81  OD1       10.6700   17.0080    8.0570 O.co2 416  ASP416     -0.2456
     82  OD2       11.8720   15.2690    8.3860 O.co2 416  ASP416     -0.2456
     83  N          7.4300   17.1820   15.8930 N.3   423  TRP423     -0.1241
     84  CA         7.2510   15.7250   16.0720 C.3   423  TRP423      0.1605
     85  C          6.5440   15.4140   17.4010 C.2   423  TRP423      0.2264
     86  O          5.7920   14.4410   17.4990 O.2   423  TRP423     -0.2867
     87  CB         8.5500   14.9160   15.9240 C.3   423  TRP423      0.0550
     88  CG         9.2390   15.0120   14.5440 C.ar  423  TRP423      0.0003
     89  CD1       10.4970   15.4680   14.2960 C.ar  423  TRP423      0.0946
     90  CD2        8.7070   14.6080   13.2690 C.ar  423  TRP423      0.0152
     91  NE1       10.7770   15.3960   12.9520 N.ar  423  TRP423     -0.2442
     92  CE2        9.7000   14.8660   12.2960 C.ar  423  TRP423      0.0810
     93  CE3        7.4890   14.0670   12.8440 C.ar  423  TRP423      0.0012
     94  CZ2        9.5090   14.6100   10.9260 C.ar  423  TRP423      0.0191
     95  CZ3        7.2980   13.8090   11.4620 C.ar  423  TRP423      0.0001
     96  CH2        8.3080   14.0760   10.5360 C.ar  423  TRP423      0.0015
     97  N          8.5530   18.8970   -3.4390 N.3   445  LYS445     -0.1245
     98  CA         7.1870   19.1200   -2.9810 C.3   445  LYS445      0.1561
     99  C          7.0800   20.2240   -1.9240 C.2   445  LYS445      0.2260
    100  O          7.9950   20.4370   -1.1260 O.2   445  LYS445     -0.2867
    101  CB         6.6640   17.8370   -2.3350 C.3   445  LYS445      0.0271
    102  CG         6.6670   16.5930   -3.2240 C.3   445  LYS445      0.0035
    103  CD         6.2260   15.3740   -2.4170 C.3   445  LYS445      0.0206
    104  CE         6.3990   14.0620   -3.1760 C.3   445  LYS445      0.1093
    105  NZ         6.6970   12.9060   -2.2710 N.3   445  LYS445     -0.1314
    106  N          5.5150   20.8710    1.4420 N.3   447  GLU447     -0.1245
    107  CA         5.0060   19.9850    2.4900 C.3   447  GLU447      0.1567
    108  C          5.0080   20.6300    3.8710 C.2   447  GLU447      0.2260
    109  O          5.8090   21.5240    4.1470 O.2   447  GLU447     -0.2867
    110  CB         5.8210   18.6960    2.5300 C.3   447  GLU447      0.0388
    111  CG         5.8130   17.9440    1.2060 C.3   447  GLU447      0.1160
    112  CD         6.5110   16.6140    1.2800 C.2   447  GLU447      0.3649
    113  OE1        5.8440   15.6050    1.6140 O.co2 447  GLU447     -0.2457
    114  OE2        7.7240   16.5660    0.9830 O.co2 447  GLU447     -0.2457
    115  N          3.8860   18.1460    6.6960 N.3   449  VAL449     -0.1231
    116  CA         4.1690   16.9580    7.5070 C.3   449  VAL449      0.1692
    117  C          5.6790   16.7820    7.6840 C.2   449  VAL449      0.2591
    118  O          6.1550   16.4810    8.7760 O.2   449  VAL449     -0.2718
    119  CB         3.4980   15.6790    6.9430 C.3   449  VAL449      0.0266
    120  CG1        3.7900   14.4830    7.8420 C.3   449  VAL449      0.0020
    121  CG2        1.9950   15.8780    6.8090 C.3   449  VAL449      0.0020
    122  N          6.4160   16.9910    6.6000 N.am  450  VAL450     -0.1980
    123  CA         7.8560   17.1750    6.6400 C.3   450  VAL450      0.1595
    124  C          8.1000   18.5890    6.1070 C.2   450  VAL450      0.2287
    125  O          8.1320   18.8010    4.8920 O.2   450  VAL450     -0.2864
    126  CB         8.6250   16.1020    5.8000 C.3   450  VAL450      0.0276
    127  CG1        8.7740   14.8270    6.6080 C.3   450  VAL450      0.0022
    128  CG2        7.9410   15.8020    4.4720 C.3   450  VAL450      0.0022
    129  N          4.4580   12.6990   15.3720 N.3   461  TYR461     -0.1241
    130  CA         5.0050   11.4980   14.7150 C.3   461  TYR461      0.1605
    131  C          4.1050   10.3000   14.9920 C.2   461  TYR461      0.2264
    132  O          3.7230    9.5770   14.0750 O.2   461  TYR461     -0.2867
    133  CB         6.4420   11.1990   15.2010 C.3   461  TYR461      0.0534
    134  CG         7.1720   10.0330   14.4970 C.ar  461  TYR461     -0.0201
    135  CD1        7.2040    9.9270   13.1010 C.ar  461  TYR461     -0.0009
    136  CD2        7.8450    9.0520   15.2370 C.ar  461  TYR461     -0.0009
    137  CE1        7.8820    8.8650   12.4600 C.ar  461  TYR461      0.0417
    138  CE2        8.5170    7.9850   14.6090 C.ar  461  TYR461      0.0417
    139  CZ         8.5310    7.8980   13.2220 C.ar  461  TYR461      0.1957
    140  OH         9.1970    6.8510   12.5980 O.3   461  TYR461     -0.2866
@<TRIPOS>BOND
     1    97    98    1
     2   102   103    1
     3   102   101    1
     4   104   103    1
     5   104   105    1
     6    98   101    1
     7    98    99    1
     8     7     6   ar
     9     8     6   ar
    10     6     5    1
    11     2     5    1
    12     2     1    1
    13     2     3    1
    14    99   100    2
    15     3     4    2
    16    49    47   ar
    17    49    48   ar
    18    47    45   ar
    19    48    46   ar
    20   114   112   ar
    21   111   112    1
    22   111   110    1
    23   112   113   ar
    24   106   107    1
    25    45    44   ar
    26    46    44   ar
    27    67    68    1
    28    13    14    1
    29    13    10    1
    30    44    43    1
    31    39    40    1
    32    16    14   ar
    33    16    18   ar
    34    14    15   ar
    35     9    10    1
    36   107   110    1
    37   107   108    1
    38    18    19   ar
    39    68    71    1
    40    68    69    1
    41    71    72    1
    42    10    11    1
    43    15    17   ar
    44    43    40    1
    45    40    41    1
    46    19    17   ar
    47    19    20    1
    48    73    72    2
    49    72    74   am
    50   108   109    2
    51    69    70    2
    52    69    75   am
    53    12    11    2
    54    11    21   am
    55   128   126    1
    56    41    42    2
    57    41    50   am
    58    75    76    1
    59   125   124    2
    60    28    27    2
    61    78    77    2
    62    21    22    1
    63    59    60    1
    64    27    29   am
    65    27    26    1
    66    50    51    1
    67    26    25    1
    68   126   127    1
    69   126   123    1
    70   124   123    1
    71    76    77    1
    72    76    79    1
    73    25    22    1
    74    57    56    2
    75    60    63    1
    76    60    61    1
    77   122   123    1
    78   122   117   am
    79    22    23    1
    80   115   116    1
    81   121   119    1
    82    66    64   ar
    83   119   116    1
    84   119   120    1
    85    55    54    1
    86    55    56    1
    87    51    54    1
    88    51    52    1
    89    79    80    1
    90    62    61    2
    91    63    64    1
    92    23    24    2
    93    56    58   am
    94    52    53    2
    95    64    65   ar
    96   116   117    1
    97   117   118    2
    98    80    81   ar
    99    80    82   ar
   100    30    31    1
   101    34    31    1
   102    34    35    1
   103    31    32    1
   104    36    35    1
   105    36    37    1
   106    38    37    1
   107    32    33    2
   108    96    94   ar
   109    96    95   ar
   110    94    92   ar
   111    95    93   ar
   112    92    91   ar
   113    92    90   ar
   114   137   135   ar
   115   137   139   ar
   116   140   139    1
   117    93    90   ar
   118    91    89   ar
   119   135   134   ar
   120   139   138   ar
   121    90    88   ar
   122   132   131    2
   123    89    88   ar
   124   134   133    1
   125   134   136   ar
   126    88    87    1
   127   138   136   ar
   128   130   131    1
   129   130   133    1
   130   130   129    1
   131    83    84    1
   132    87    84    1
   133    84    85    1
   134    85    86    2
