@<TRIPOS>MOLECULE
tmp/1ogpA00.pdb
 187 184 0 0 0
SMALL
GASTEIGER

@<TRIPOS>ATOM
      1  N         17.0920   91.8700   36.4420 N.3    47  PHE47      -0.1227
      2  CA        17.6080   93.0230   37.1730 C.3    47  PHE47       0.1736
      3  C         16.4270   93.9220   37.4720 C.2    47  PHE47       0.2595
      4  O         15.5820   94.2000   36.5810 O.2    47  PHE47      -0.2718
      5  CB        18.6470   93.7740   36.3630 C.3    47  PHE47       0.0547
      6  CG        19.5850   94.6010   37.1680 C.ar   47  PHE47      -0.0202
      7  CD1       19.2210   95.8880   37.5890 C.ar   47  PHE47      -0.0042
      8  CD2       20.8520   94.1470   37.4640 C.ar   47  PHE47      -0.0042
      9  CE1       20.0780   96.6760   38.3600 C.ar   47  PHE47      -0.0003
     10  CE2       21.7520   94.9680   38.2070 C.ar   47  PHE47      -0.0003
     11  CZ        21.3560   96.2090   38.6480 C.ar   47  PHE47      -0.0000
     12  N         16.3520   94.3640   38.7250 N.am   48  TYR48      -0.1962
     13  CA        15.1780   95.0860   39.1990 C.3    48  TYR48       0.1771
     14  C         15.0490   96.4050   38.4490 C.2    48  TYR48       0.2619
     15  O         15.9710   97.0700   38.0320 O.2    48  TYR48      -0.2715
     16  CB        15.1430   95.4010   40.7380 C.3    48  TYR48       0.0574
     17  CG        16.0160   96.5520   41.1500 C.ar   48  TYR48      -0.0198
     18  CD1       15.4920   97.8110   41.3910 C.ar   48  TYR48      -0.0009
     19  CD2       17.3870   96.4180   41.2100 C.ar   48  TYR48      -0.0009
     20  CE1       16.3440   98.9340   41.7040 C.ar   48  TYR48       0.0417
     21  CE2       18.2030   97.5260   41.5380 C.ar   48  TYR48       0.0417
     22  CZ        17.6790   98.7650   41.7810 C.ar   48  TYR48       0.1957
     23  OH        18.5200   99.7790   42.0960 O.3    48  TYR48      -0.2866
     24  N         13.8240   96.7990   38.4170 N.am   49  LYS49      -0.1963
     25  CA        13.3950   97.9370   37.6200 C.3    49  LYS49       0.1728
     26  C         12.7220   98.9620   38.5330 C.2    49  LYS49       0.2616
     27  O         11.8530   98.6630   39.3070 O.2    49  LYS49      -0.2715
     28  CB        12.4850   97.4460   36.4710 C.3    49  LYS49       0.0311
     29  CG        13.3100   97.0900   35.3070 C.3    49  LYS49       0.0038
     30  CD        13.2990   95.6380   35.0350 C.3    49  LYS49       0.0206
     31  CE        14.1470   95.3380   33.7860 C.3    49  LYS49       0.1093
     32  NZ        14.7950   94.0080   33.9210 N.3    49  LYS49      -0.1314
     33  N         13.2270  100.1530   38.5170 N.am   50  ARG50      -0.1963
     34  CA        12.6360  101.1900   39.3540 C.3    50  ARG50       0.1729
     35  C         12.5780  102.4890   38.5870 C.2    50  ARG50       0.2616
     36  O         13.5850  103.0890   38.2160 O.2    50  ARG50      -0.2715
     37  CB        13.3340  101.3170   40.6920 C.3    50  ARG50       0.0348
     38  CG        12.5160  102.1100   41.7390 C.3    50  ARG50       0.0492
     39  CD        12.4600  103.6320   41.5590 C.3    50  ARG50       0.2205
     40  NE        11.9190  104.3300   42.7100 N.pl3  50  ARG50      -0.0865
     41  CZ        10.6410  104.7610   42.8790 C.cat  50  ARG50       0.5346
     42  NH1        9.6490  104.6010   42.0080 N.pl3  50  ARG50       0.1354
     43  NH2       10.3970  105.4340   43.9290 N.pl3  50  ARG50       0.1354
     44  N         11.3810  102.9440   38.3810 N.am   51  ASN51      -0.1958
     45  CA        11.1000  104.1410   37.5310 C.3    51  ASN51       0.1819
     46  C         10.0650  105.0380   38.1690 C.2    51  ASN51       0.2621
     47  O          9.1210  104.5920   38.7390 O.2    51  ASN51      -0.2715
     48  CB        10.6430  103.7600   36.1240 C.3    51  ASN51       0.1195
     49  CG        11.5970  102.8350   35.4760 C.2    51  ASN51       0.2630
     50  OD1       12.6270  103.2590   34.9240 O.2    51  ASN51      -0.2716
     51  ND2       11.3470  101.5360   35.6290 N.am   51  ASN51      -0.0877
     52  N         10.2780  106.3140   38.0020 N.am   52  HIS52      -0.1973
     53  CA         9.4110  107.3410   38.5180 C.3    52  HIS52       0.1656
     54  C          8.4500  107.8470   37.4570 C.2    52  HIS52       0.2291
     55  O          7.5300  108.6170   37.7210 O.2    52  HIS52      -0.2864
     56  CB        10.1970  108.5300   39.1120 C.3    52  HIS52       0.0771
     57  CG        10.8580  108.2550   40.4350 C.ar   52  HIS52       0.0820
     58  ND1       12.1770  107.8930   40.5610 N.ar   52  HIS52      -0.2267
     59  CD2       10.3860  108.3380   41.6850 C.ar   52  HIS52       0.1154
     60  CE1       12.4740  107.7440   41.8320 C.ar   52  HIS52       0.1986
     61  NE2       11.4010  108.0090   42.5330 N.ar   52  HIS52      -0.2212
     62  N         23.7490   98.0050   42.1610 N.3    95  LEU95      -0.1245
     63  CA        22.7690   99.0010   42.4230 C.3    95  LEU95       0.1561
     64  C         21.7620   98.4350   43.4090 C.2    95  LEU95       0.2260
     65  O         21.1390   97.4320   43.1160 O.2    95  LEU95      -0.2867
     66  CB        21.9850   99.3120   41.1880 C.3    95  LEU95       0.0270
     67  CG        22.5990  100.1790   40.1490 C.3    95  LEU95       0.0019
     68  CD1       21.5890  100.5020   39.0820 C.3    95  LEU95       0.0001
     69  CD2       23.2580  101.4090   40.8100 C.3    95  LEU95       0.0001
     70  N         18.4550   99.7330   45.5900 N.3    97  CYS97      -0.1235
     71  CA        17.4930  100.7540   45.7340 C.3    97  CYS97       0.1677
     72  C         17.3070  101.0460   47.2590 C.2    97  CYS97       0.2270
     73  O         17.2070  100.1520   48.0950 O.2    97  CYS97      -0.2867
     74  CB        16.1890  100.3710   45.1280 C.3    97  CYS97       0.0956
     75  SG        14.9540  101.8150   45.2560 S.3    97  CYS97      -0.0801
     76  N         17.7120  114.0880   33.5590 N.3   158  SER158     -0.1217
     77  CA        17.1780  113.1150   32.6220 C.3   158  SER158      0.1889
     78  C         16.3180  113.7880   31.5730 C.2   158  SER158      0.2288
     79  O         16.0430  114.9610   31.5730 O.2   158  SER158     -0.2866
     80  CB        16.3650  112.0590   33.3380 C.3   158  SER158      0.2089
     81  OG        15.8740  110.9740   32.4970 O.3   158  SER158     -0.2183
     82  N         13.3320  112.1480   31.0540 N.3   160  ASP160     -0.1239
     83  CA        12.0220  111.5810   31.3940 C.3   160  ASP160      0.1674
     84  C         11.1090  112.6170   32.0510 C.2   160  ASP160      0.2266
     85  O         11.5020  113.7740   32.2520 O.2   160  ASP160     -0.2867
     86  CB        12.1730  110.2750   32.1980 C.3   160  ASP160      0.1410
     87  CG        12.6460  110.4830   33.6310 C.2   160  ASP160      0.3668
     88  OD1       13.0140  111.5880   34.0380 O.co2 160  ASP160     -0.2456
     89  OD2       12.6770  109.5410   34.4190 O.co2 160  ASP160     -0.2456
     90  N         13.6500  113.6990   36.1680 N.3   170  TYR170     -0.1241
     91  CA        14.3870  113.1010   37.2490 C.3   170  TYR170      0.1605
     92  C         15.7870  113.7150   37.2210 C.2   170  TYR170      0.2264
     93  O         16.3550  113.8980   36.1900 O.2   170  TYR170     -0.2867
     94  CB        14.4350  111.5210   37.1580 C.3   170  TYR170      0.0534
     95  CG        14.9680  110.8750   38.3870 C.ar  170  TYR170     -0.0201
     96  CD1       14.1100  110.5820   39.4650 C.ar  170  TYR170     -0.0009
     97  CD2       16.3710  110.6300   38.5380 C.ar  170  TYR170     -0.0009
     98  CE1       14.6210  110.0610   40.6610 C.ar  170  TYR170      0.0417
     99  CE2       16.8890  110.1490   39.6940 C.ar  170  TYR170      0.0417
    100  CZ        16.0110  109.8760   40.7570 C.ar  170  TYR170      0.1957
    101  OH        16.4680  109.4310   41.9150 O.3   170  TYR170     -0.2866
    102  N         14.6360  100.1060   29.6390 N.3   200  ASP200     -0.1225
    103  CA        14.4180  100.0400   31.1170 C.3   200  ASP200      0.1805
    104  C         15.6060  100.5670   31.9730 C.2   200  ASP200      0.2597
    105  O         15.4630  101.1650   32.9770 O.2   200  ASP200     -0.2718
    106  CB        14.0340   98.5640   31.5860 C.3   200  ASP200      0.1424
    107  CG        12.4830   98.3570   31.6450 C.2   200  ASP200      0.3668
    108  OD1       11.8040   99.3400   31.8450 O.co2 200  ASP200     -0.2456
    109  OD2       11.8460   97.3200   31.4610 O.co2 200  ASP200     -0.2456
    110  N         16.8090  100.3350   31.5050 N.am  201  HIS201     -0.1975
    111  CA        18.0120  100.6350   32.2800 C.3   201  HIS201      0.1656
    112  C         18.7760  101.8390   31.8170 C.2   201  HIS201      0.2291
    113  O         19.8530  102.1230   32.2740 O.2   201  HIS201     -0.2864
    114  CB        18.8770   99.4100   32.4100 C.3   201  HIS201      0.0771
    115  CG        18.2030   98.2700   33.1170 C.ar  201  HIS201      0.0820
    116  ND1       18.8690   97.2420   33.6610 N.ar  201  HIS201     -0.2267
    117  CD2       16.9180   97.9470   33.2870 C.ar  201  HIS201      0.1154
    118  CE1       18.0510   96.3460   34.1640 C.ar  201  HIS201      0.1986
    119  NE2       16.8560   96.7440   33.9400 N.ar  201  HIS201     -0.2212
    120  N         23.2370  106.2020   30.7620 N.3   206  ARG206     -0.1197
    121  CA        22.9600  106.4810   32.1850 C.3   206  ARG206      0.1779
    122  C         24.2310  106.7910   32.9470 C.2   206  ARG206      0.2305
    123  O         25.2500  106.3860   32.5510 O.2   206  ARG206     -0.2863
    124  CB        22.2370  105.2800   32.9190 C.2   206  ARG206     -0.0007
    125  CG        23.1390  104.0570   33.2870 C.2   206  ARG206      0.0176
    126  CD        22.4410  102.9260   33.9780 C.3   206  ARG206      0.2464
    127  NE        21.8710  103.4010   35.2080 N.pl3 206  ARG206     -0.0815
    128  CZ        20.9130  102.7880   35.9270 C.cat 206  ARG206      0.5349
    129  NH1       20.4310  101.6310   35.5350 N.pl3 206  ARG206      0.1354
    130  NH2       20.4600  103.3530   37.0450 N.pl3 206  ARG206      0.1354
    131  N         20.8710  103.4620   44.6900 N.3   214  GLY214     -0.1210
    132  CA        20.3330  103.3960   43.3380 C.3   214  GLY214      0.1956
    133  C         19.8430  104.7100   42.7570 C.2   214  GLY214      0.2611
    134  O         20.1150  105.0450   41.5920 O.2   214  GLY214     -0.2717
    135  N         19.1050  105.4360   43.5650 N.am  215  ALA215     -0.1979
    136  CA        18.4630  106.6790   43.1500 C.3   215  ALA215      0.1597
    137  C         19.3930  107.7240   42.5170 C.2   215  ALA215      0.2287
    138  O         18.9420  108.5490   41.7730 O.2   215  ALA215     -0.2864
    139  CB        17.7020  107.2890   44.3550 C.3   215  ALA215      0.0319
    140  N         21.9530  107.0470   40.3870 N.3   217  SER217     -0.1202
    141  CA        22.3850  106.5630   39.0590 C.3   217  SER217      0.2020
    142  C         21.3460  106.9060   37.9680 C.2   217  SER217      0.2619
    143  O         20.6060  106.0580   37.4800 O.2   217  SER217     -0.2717
    144  CB        22.7030  105.0450   39.0780 C.3   217  SER217      0.2103
    145  OG        23.7760  104.8110   39.9160 O.3   217  SER217     -0.2182
    146  N         21.3430  108.1670   37.5860 N.am  218  VAL218     -0.1965
    147  CA        20.2720  108.7330   36.7520 C.3   218  VAL218      0.1727
    148  C         20.2710  108.1300   35.3680 C.2   218  VAL218      0.2616
    149  O         21.3140  108.0820   34.6940 O.2   218  VAL218     -0.2715
    150  CB        20.4390  110.2260   36.5630 C.3   218  VAL218      0.0290
    151  CG1       19.3820  110.7390   35.6630 C.3   218  VAL218      0.0023
    152  CG2       20.4600  111.0260   37.9120 C.3   218  VAL218      0.0023
    153  N         19.1050  107.6790   34.9590 N.am  219  LYS219     -0.1963
    154  CA        18.9370  107.0890   33.6230 C.3   219  LYS219      0.1728
    155  C         18.5320  108.1040   32.5020 C.2   219  LYS219      0.2616
    156  O         17.8720  109.1130   32.7550 O.2   219  LYS219     -0.2715
    157  CB        17.9820  105.9000   33.6700 C.3   219  LYS219      0.0311
    158  CG        18.5000  104.6680   34.4840 C.3   219  LYS219      0.0038
    159  CD        17.3520  103.5220   34.6840 C.3   219  LYS219      0.0206
    160  CE        16.1550  103.9950   35.6890 C.3   219  LYS219      0.1093
    161  NZ        15.0270  103.0280   35.7110 N.3   219  LYS219     -0.1314
    162  N         18.8800  107.7350   31.2650 N.am  220  TRP220     -0.1974
    163  CA        18.4880  108.4630   30.0030 C.3   220  TRP220      0.1640
    164  C         18.9720  109.9240   30.0540 C.2   220  TRP220      0.2290
    165  O         18.2060  110.8840   30.1080 O.2   220  TRP220     -0.2864
    166  CB        17.0110  108.4010   29.7510 C.3   220  TRP220      0.0576
    167  CG        16.4180  107.1030   29.9560 C.ar  220  TRP220      0.0006
    168  CD1       16.5140  106.0890   29.1760 C.ar  220  TRP220      0.0946
    169  CD2       15.5620  106.7210   31.0220 C.ar  220  TRP220      0.0152
    170  NE1       15.8030  105.0040   29.6200 N.ar  220  TRP220     -0.2442
    171  CE2       15.2060  105.3570   30.7970 C.ar  220  TRP220      0.0810
    172  CE3       15.1050  107.3590   32.1710 C.ar  220  TRP220      0.0012
    173  CZ2       14.4310  104.5980   31.7050 C.ar  220  TRP220      0.0191
    174  CZ3       14.3020  106.6570   33.0210 C.ar  220  TRP220      0.0001
    175  CH2       13.9760  105.2690   32.7870 C.ar  220  TRP220      0.0015
    176  N         14.4950  110.4880   49.6110 N.3   240  TYR240     -0.1241
    177  CA        15.7430  109.7660   49.7090 C.3   240  TYR240      0.1605
    178  C         16.6410  110.3510   50.7830 C.2   240  TYR240      0.2264
    179  O         17.8270  110.6460   50.6190 O.2   240  TYR240     -0.2867
    180  CB        16.3280  109.6520   48.3290 C.3   240  TYR240      0.0534
    181  CG        15.5000  108.7270   47.4110 C.ar  240  TYR240     -0.0201
    182  CD1       15.3770  107.4090   47.6710 C.ar  240  TYR240     -0.0009
    183  CD2       14.8730  109.2250   46.2630 C.ar  240  TYR240     -0.0009
    184  CE1       14.6720  106.5860   46.8350 C.ar  240  TYR240      0.0417
    185  CE2       14.1340  108.4500   45.4590 C.ar  240  TYR240      0.0417
    186  CZ        14.0710  107.1300   45.7290 C.ar  240  TYR240      0.1957
    187  OH        13.3280  106.3390   44.9340 O.3   240  TYR240     -0.2866
@<TRIPOS>BOND
     1   168   170   ar
     2   168   167   ar
     3   170   171   ar
     4   102   103    1
     5   166   167    1
     6   166   163    1
     7   167   169   ar
     8   163   164    1
     9   163   162    1
    10   164   165    2
    11   120   121    1
    12   171   169   ar
    13   171   173   ar
    14   169   172   ar
    15    82    83    1
    16   103   106    1
    17   103   104    1
    18   162   155   am
    19    83    84    1
    20    83    86    1
    21   109   107   ar
    22   110   104   am
    23   110   111    1
    24    79    78    2
    25    78    77    1
    26   106   107    1
    27   107   108   ar
    28   173   175   ar
    29   112   113    2
    30   112   111    1
    31   104   105    2
    32    84    85    2
    33   172   174   ar
    34   121   124    1
    35   121   122    1
    36    86    87    1
    37   111   114    1
    38   114   115    1
    39    81    80    1
    40   155   156    2
    41   155   154    1
    42   123   122    2
    43    77    80    1
    44    77    76    1
    45   175   174   ar
    46   124   125    2
    47   115   117   ar
    48   115   116   ar
    49   117   119   ar
    50   125   126    1
    51   154   157    1
    52   154   153    1
    53    87    88   ar
    54    87    89   ar
    55   116   118   ar
    56   157   158    1
    57    31    32    1
    58    31    30    1
    59   119   118   ar
    60   126   127    1
    61   158   159    1
    62   159   160    1
    63   149   148    2
    64    50    49    2
    65   153   148   am
    66    30    29    1
    67   127   128    2
    68    29    28    1
    69   148   147    1
    70    49    51   am
    71    49    48    1
    72   129   128    1
    73   151   150    1
    74   160   161    1
    75   128   130    1
    76    48    45    1
    77    90    91    1
    78    93    92    2
    79     5     6    1
    80     5     2    1
    81     1     2    1
    82    28    25    1
    83   150   147    1
    84   150   152    1
    85     4     3    2
    86   147   146    1
    87    94    91    1
    88    94    95    1
    89     6     8   ar
    90     6     7   ar
    91     2     3    1
    92    92    91    1
    93    54    55    2
    94    54    53    1
    95     8    10   ar
    96     3    12   am
    97   143   142    2
    98    45    46    1
    99    45    44    1
   100   146   142   am
   101     7     9   ar
   102    25    24    1
   103    25    26    1
   104   142   141    1
   105    52    46   am
   106    52    53    1
   107    15    14    2
   108    46    47    2
   109    10    11   ar
   110    36    35    2
   111     9    11   ar
   112    44    35   am
   113    95    97   ar
   114    95    96   ar
   115    24    14   am
   116    14    13    1
   117    33    26   am
   118    33    34    1
   119    53    56    1
   120    26    27    2
   121    97    99   ar
   122    35    34    1
   123    12    13    1
   124   141   144    1
   125   141   140    1
   126   144   145    1
   127    68    67    1
   128    56    57    1
   129    13    16    1
   130    34    37    1
   131    96    98   ar
   132    99   100   ar
   133    67    69    1
   134    67    66    1
   135    57    58   ar
   136    57    59   ar
   137    58    60   ar
   138    98   100   ar
   139    37    38    1
   140    16    17    1
   141   100   101    1
   142    17    19   ar
   143    17    18   ar
   144    66    63    1
   145    19    21   ar
   146    18    20   ar
   147    21    22   ar
   148    39    38    1
   149    39    40    1
   150   134   133    2
   151    59    61   ar
   152    20    22   ar
   153   138   137    2
   154    22    23    1
   155    60    61   ar
   156    42    41    1
   157    62    63    1
   158    63    64    1
   159   137   136    1
   160    40    41    2
   161   133   132    1
   162   133   135   am
   163    41    43    1
   164    65    64    2
   165   136   135    1
   166   136   139    1
   167   132   131    1
   168   187   186    1
   169    74    75    1
   170    74    71    1
   171   185   186   ar
   172   185   183   ar
   173    70    71    1
   174   186   184   ar
   175    71    72    1
   176   183   181   ar
   177   184   182   ar
   178    72    73    2
   179   181   182   ar
   180   181   180    1
   181   180   177    1
   182   176   177    1
   183   177   178    1
   184   179   178    2
