@<TRIPOS>MOLECULE
tmp/1ogqA02.pdb
 91 87 0 0 0
SMALL
GASTEIGER

@<TRIPOS>ATOM
      1  N         39.6580   16.6040   17.0300 N.3   230  LYS230     -0.1245
      2  CA        38.4160   17.3200   16.9490 C.3   230  LYS230      0.1561
      3  C         38.3070   18.2500   15.7510 C.2   230  LYS230      0.2260
      4  O         38.1200   19.4340   15.8530 O.2   230  LYS230     -0.2867
      5  CB        38.0870   18.0900   18.2610 C.3   230  LYS230      0.0271
      6  CG        37.8560   17.0690   19.3800 C.3   230  LYS230      0.0035
      7  CD        37.9800   17.6870   20.7680 C.3   230  LYS230      0.0206
      8  CE        37.2800   16.8660   21.8330 C.3   230  LYS230      0.1093
      9  NZ        37.7460   15.4560   21.8660 N.3   230  LYS230     -0.1314
     10  N         42.6500   12.1710   17.4980 N.3   252  ARG252     -0.1231
     11  CA        41.3360   11.6810   17.9680 C.3   252  ARG252      0.1694
     12  C         40.1960   12.5300   17.4120 C.2   252  ARG252      0.2592
     13  O         40.2670   13.7180   17.0920 O.2   252  ARG252     -0.2718
     14  CB        41.3080   11.7200   19.5150 C.3   252  ARG252      0.0321
     15  CG        41.0820   13.1010   20.1110 C.3   252  ARG252      0.0489
     16  CD        41.1410   13.0680   21.6550 C.3   252  ARG252      0.2205
     17  NE        42.5310   13.0060   22.0670 N.pl3 252  ARG252     -0.0865
     18  CZ        42.9180   13.0040   23.3420 C.cat 252  ARG252      0.5346
     19  NH1       42.0130   12.9730   24.3190 N.pl3 252  ARG252      0.1354
     20  NH2       44.1930   13.0170   23.7230 N.pl3 252  ARG252      0.1354
     21  N         39.0370   11.8900   17.2890 N.am  253  ASN253     -0.1974
     22  CA        37.8040   12.5410   16.8670 C.3   253  ASN253      0.1688
     23  C         37.9210   13.1830   15.4960 C.2   253  ASN253      0.2292
     24  O         37.8230   14.4010   15.3220 O.2   253  ASN253     -0.2864
     25  CB        37.3150   13.6110   17.8590 C.3   253  ASN253      0.1181
     26  CG        36.9050   13.0290   19.1970 C.2   253  ASN253      0.2629
     27  OD1       35.8550   12.3760   19.2820 O.2   253  ASN253     -0.2716
     28  ND2       37.6950   13.2910   20.2250 N.am  253  ASN253     -0.0877
     29  N         49.9690    9.2280   22.3490 N.3   273  LEU273     -0.1231
     30  CA        49.3710    8.8420   21.0690 C.3   273  LEU273      0.1693
     31  C         47.8600    8.7210   21.2840 C.2   273  LEU273      0.2592
     32  O         47.4630    8.0810   22.2460 O.2   273  LEU273     -0.2718
     33  CB        49.8700    7.4700   20.5900 C.3   273  LEU273      0.0284
     34  CG        49.1390    6.8490   19.3910 C.3   273  LEU273      0.0019
     35  CD1       49.4150    7.6850   18.1410 C.3   273  LEU273      0.0001
     36  CD2       49.6640    5.4170   19.1930 C.3   273  LEU273      0.0001
     37  N         47.0720    9.3450   20.4010 N.am  274  ASN274     -0.1974
     38  CA        45.6350    9.1340   20.5330 C.3   274  ASN274      0.1688
     39  C         45.0060    9.1500   19.1460 C.2   274  ASN274      0.2292
     40  O         45.1850   10.1500   18.4800 O.2   274  ASN274     -0.2864
     41  CB        44.9580   10.1650   21.4660 C.3   274  ASN274      0.1181
     42  CG        43.5880    9.6160   21.7780 C.2   274  ASN274      0.2629
     43  OD1       42.7430    9.1180   21.0730 O.2   274  ASN274     -0.2716
     44  ND2       43.3970    9.7360   23.0920 N.am  274  ASN274     -0.0877
     45  N         41.8080    7.5020   18.7730 N.3   276  SER276     -0.1202
     46  CA        40.4290    7.1170   19.0530 C.3   276  SER276      0.2020
     47  C         39.4190    7.9470   18.3050 C.2   276  SER276      0.2618
     48  O         39.7040    9.0390   17.8000 O.2   276  SER276     -0.2717
     49  CB        40.1310    7.1980   20.5650 C.3   276  SER276      0.2103
     50  OG        40.1500    8.5420   21.0230 O.3   276  SER276     -0.2182
     51  N         38.2100    7.3670   18.1260 N.am  277  PHE277     -0.1975
     52  CA        37.1330    8.0700   17.4590 C.3   277  PHE277      0.1639
     53  C         37.5260    8.4730   16.0320 C.2   277  PHE277      0.2290
     54  O         37.5120    9.6310   15.5990 O.2   277  PHE277     -0.2864
     55  CB        36.4890    9.2390   18.2340 C.3   277  PHE277      0.0560
     56  CG        35.9190    8.7910   19.5510 C.ar  277  PHE277     -0.0200
     57  CD1       34.5870    8.3270   19.6220 C.ar  277  PHE277     -0.0042
     58  CD2       36.6930    8.7530   20.6950 C.ar  277  PHE277     -0.0042
     59  CE1       34.0820    7.8820   20.8430 C.ar  277  PHE277     -0.0003
     60  CE2       36.2230    8.2820   21.8990 C.ar  277  PHE277     -0.0003
     61  CZ        34.8920    7.8440   21.9670 C.ar  277  PHE277     -0.0000
     62  N         50.6440    2.2710   25.2890 N.3   293  PHE293     -0.1227
     63  CA        49.4690    3.1180   25.3710 C.3   293  PHE293      0.1736
     64  C         48.2140    2.3350   25.7540 C.2   293  PHE293      0.2595
     65  O         48.1080    1.1670   25.4160 O.2   293  PHE293     -0.2718
     66  CB        49.2190    3.8340   24.0270 C.3   293  PHE293      0.0547
     67  CG        50.4480    4.6320   23.6630 C.ar  293  PHE293     -0.0202
     68  CD1       51.2130    4.3460   22.5670 C.ar  293  PHE293     -0.0042
     69  CD2       50.7920    5.6910   24.5140 C.ar  293  PHE293     -0.0042
     70  CE1       52.3350    5.1290   22.2840 C.ar  293  PHE293     -0.0003
     71  CE2       51.9320    6.4310   24.2390 C.ar  293  PHE293     -0.0003
     72  CZ        52.6810    6.1690   23.1240 C.ar  293  PHE293     -0.0000
     73  N         47.4010    2.9880   26.5830 N.am  294  ASP294     -0.1974
     74  CA        46.1670    2.3970   27.0600 C.3   294  ASP294      0.1709
     75  C         45.3100    2.0220   25.8640 C.2   294  ASP294      0.2293
     76  O         45.3700    2.6760   24.8150 O.2   294  ASP294     -0.2864
     77  CB        45.3870    3.4300   27.9100 C.3   294  ASP294      0.1436
     78  CG        44.2000    2.8290   28.6140 C.2   294  ASP294      0.3671
     79  OD1       44.4560    2.0680   29.5880 O.co2 294  ASP294     -0.2456
     80  OD2       43.0100    3.0220   28.2740 O.co2 294  ASP294     -0.2456
     81  N         42.2810    2.8910   25.4940 N.3   296  SER296     -0.1202
     82  CA        41.5130    4.0890   25.2060 C.3   296  SER296      0.2020
     83  C         42.1690    4.9740   24.1340 C.2   296  SER296      0.2618
     84  O         41.4500    5.7090   23.4400 O.2   296  SER296     -0.2717
     85  CB        41.2970    5.0190   26.4370 C.3   296  SER296      0.2103
     86  OG        42.5710    5.5600   26.8500 O.3   296  SER296     -0.2182
     87  N         43.4640    4.8390   23.8640 N.am  297  ALA297     -0.1979
     88  CA        44.1170    5.5640   22.7930 C.3   297  ALA297      0.1597
     89  C         43.7700    5.0260   21.3930 C.2   297  ALA297      0.2287
     90  O         44.0160    5.7430   20.4290 O.2   297  ALA297     -0.2864
     91  CB        45.6380    5.4050   22.9740 C.3   297  ALA297      0.0319
@<TRIPOS>BOND
     1    24    23    2
     2    23    22    1
     3    54    53    2
     4     3     4    2
     5     3     2    1
     6    53    52    1
     7    22    21    1
     8    22    25    1
     9     2     1    1
    10     2     5    1
    11    13    12    2
    12    21    12   am
    13    12    11    1
    14    52    51    1
    15    52    55    1
    16    10    11    1
    17    48    47    2
    18    25    26    1
    19    11    14    1
    20    51    47   am
    21    35    34    1
    22    55    56    1
    23     5     6    1
    24    47    46    1
    25    40    39    2
    26    45    46    1
    27    46    49    1
    28    39    38    1
    29    36    34    1
    30    26    27    2
    31    26    28   am
    32     6     7    1
    33    34    33    1
    34    14    15    1
    35    56    57   ar
    36    56    58   ar
    37    57    59   ar
    38    15    16    1
    39    37    38    1
    40    37    31   am
    41    90    89    2
    42    38    41    1
    43    49    50    1
    44    33    30    1
    45    58    60   ar
    46     7     8    1
    47    59    61   ar
    48    30    31    1
    49    30    29    1
    50    43    42    2
    51    31    32    2
    52    89    88    1
    53    41    42    1
    54    16    17    1
    55    42    44   am
    56     8     9    1
    57    60    61   ar
    58    17    18    2
    59    70    68   ar
    60    70    72   ar
    61    68    67   ar
    62    88    91    1
    63    88    87    1
    64    72    71   ar
    65    18    20    1
    66    18    19    1
    67    84    83    2
    68    67    66    1
    69    67    69   ar
    70    87    83   am
    71    66    63    1
    72    83    82    1
    73    71    69   ar
    74    76    75    2
    75    82    81    1
    76    82    85    1
    77    62    63    1
    78    63    64    1
    79    65    64    2
    80    64    73   am
    81    75    74    1
    82    85    86    1
    83    73    74    1
    84    74    77    1
    85    77    78    1
    86    80    78   ar
    87    78    79   ar
