@<TRIPOS>MOLECULE
tmp/1ogtA00.pdb
 91 87 0 0 0
SMALL
GASTEIGER

@<TRIPOS>ATOM
      1  N          9.4190   -4.4100   -1.4680 N.3     7  TYR7       -0.1241
      2  CA         8.8860   -3.0870   -1.7540 C.3     7  TYR7        0.1605
      3  C          7.7750   -2.7730   -0.7460 C.2     7  TYR7        0.2264
      4  O          6.8730   -3.5900   -0.5240 O.2     7  TYR7       -0.2867
      5  CB         8.3560   -3.0480   -3.1830 C.3     7  TYR7        0.0534
      6  CG         9.4420   -3.1850   -4.2420 C.ar    7  TYR7       -0.0201
      7  CD1       10.2710   -2.1290   -4.5460 C.ar    7  TYR7       -0.0009
      8  CD2        9.6740   -4.3890   -4.8960 C.ar    7  TYR7       -0.0009
      9  CE1       11.2940   -2.2590   -5.4940 C.ar    7  TYR7        0.0417
     10  CE2       10.6570   -4.5180   -5.8430 C.ar    7  TYR7        0.0417
     11  CZ        11.4570   -3.4470   -6.1580 C.ar    7  TYR7        0.1957
     12  OH        12.4340   -3.6120   -7.1070 O.3     7  TYR7       -0.2866
     13  N         10.0980    3.1340  -16.2540 N.3    62  ARG62      -0.1231
     14  CA         9.1370    2.0770  -15.9180 C.3    62  ARG62       0.1694
     15  C          8.8130    2.0970  -14.4270 C.2    62  ARG62       0.2591
     16  O          7.6460    1.9970  -14.0260 O.2    62  ARG62      -0.2718
     17  CB         9.6740    0.7180  -16.3310 C.3    62  ARG62       0.0321
     18  CG         8.6940   -0.4500  -16.1240 C.3    62  ARG62       0.0489
     19  CD         9.2930   -1.7440  -16.5730 C.3    62  ARG62       0.2205
     20  NE         8.3610   -2.8500  -16.4590 N.pl3  62  ARG62      -0.0865
     21  CZ         8.1560   -3.5850  -15.3870 C.cat  62  ARG62       0.5346
     22  NH1        8.7940   -3.3530  -14.2420 N.pl3  62  ARG62       0.1354
     23  NH2        7.2760   -4.5840  -15.4650 N.pl3  62  ARG62       0.1354
     24  N          9.8450    2.2240  -13.5980 N.am   63  GLU63      -0.1979
     25  CA         9.6620    2.2630  -12.1470 C.3    63  GLU63       0.1602
     26  C          8.7650    3.4210  -11.7500 C.2    63  GLU63       0.2287
     27  O          7.8900    3.2600  -10.9090 O.2    63  GLU63      -0.2864
     28  CB        11.0000    2.3770  -11.4520 C.3    63  GLU63       0.0415
     29  CG        11.8110    1.0970  -11.4970 C.3    63  GLU63       0.1163
     30  CD        11.3370    0.0800  -10.4840 C.2    63  GLU63       0.3649
     31  OE1       11.4480    0.3620   -9.2390 O.co2  63  GLU63      -0.2457
     32  OE2       10.8790   -1.0130  -10.9180 O.co2  63  GLU63      -0.2457
     33  N          5.1440    2.8140  -12.6380 N.3    66  ILE66      -0.1245
     34  CA         4.5450    1.8630  -11.6980 C.3    66  ILE66       0.1561
     35  C          4.2160    2.5730  -10.3890 C.2    66  ILE66       0.2260
     36  O          3.1450    2.3900   -9.8430 O.2    66  ILE66      -0.2867
     37  CB         5.4890    0.6780  -11.4510 C.3    66  ILE66       0.0252
     38  CG1        5.4840   -0.2450  -12.6670 C.3    66  ILE66       0.0019
     39  CG2        5.1070   -0.1030  -10.1990 C.3    66  ILE66       0.0019
     40  CD1        6.5550   -1.3040  -12.7360 C.3    66  ILE66       0.0001
     41  N          0.4610    2.9500   -8.8500 N.3    70  LYS70      -0.1245
     42  CA         0.1780    2.4460   -7.4980 C.3    70  LYS70       0.1561
     43  C         -0.4750    3.5500   -6.6580 C.2    70  LYS70       0.2260
     44  O         -1.4770    3.2960   -6.0020 O.2    70  LYS70      -0.2867
     45  CB         1.4390    1.8920   -6.8540 C.3    70  LYS70       0.0271
     46  CG         1.3380    1.5410   -5.4260 C.3    70  LYS70       0.0035
     47  CD         0.3580    0.4830   -5.1250 C.3    70  LYS70       0.0206
     48  CE         0.5360    0.1430   -3.6510 C.3    70  LYS70       0.1093
     49  NZ        -0.5360   -0.4460   -2.9100 N.3    70  LYS70      -0.1314
     50  N          5.3450   -6.2990   -0.7560 N.3    99  TYR99      -0.1241
     51  CA         5.5280   -7.5450   -1.4460 C.3    99  TYR99       0.1605
     52  C          7.0210   -7.7840   -1.6900 C.2    99  TYR99       0.2264
     53  O          7.8170   -6.8680   -1.6050 O.2    99  TYR99      -0.2867
     54  CB         4.7270   -7.5830   -2.7890 C.3    99  TYR99       0.0534
     55  CG         5.1740   -6.6190   -3.8620 C.ar   99  TYR99      -0.0201
     56  CD1        6.1710   -6.9660   -4.7770 C.ar   99  TYR99      -0.0009
     57  CD2        4.5810   -5.3700   -4.0140 C.ar   99  TYR99      -0.0009
     58  CE1        6.5860   -6.1100   -5.7670 C.ar   99  TYR99       0.0417
     59  CE2        5.0130   -4.4850   -5.0030 C.ar   99  TYR99       0.0417
     60  CZ         6.0290   -4.8600   -5.8710 C.ar   99  TYR99       0.1957
     61  OH         6.4490   -3.9880   -6.8560 O.3    99  TYR99      -0.2866
     62  N          2.9430  -11.0180   -0.3890 N.3   114  HIS114     -0.1241
     63  CA         2.1560   -9.8780   -0.8500 C.3   114  HIS114      0.1621
     64  C          1.0600   -9.6520    0.1770 C.2   114  HIS114      0.2264
     65  O          0.1930  -10.5060    0.3520 O.2   114  HIS114     -0.2867
     66  CB         1.5410  -10.1390   -2.2580 C.3   114  HIS114      0.0745
     67  CG         0.7290   -8.9840   -2.7840 C.ar  114  HIS114      0.0817
     68  ND1       -0.5040   -8.6410   -2.2930 N.ar  114  HIS114     -0.2268
     69  CD2        0.9530   -8.1500   -3.8270 C.ar  114  HIS114      0.1154
     70  CE1       -0.9300   -7.5450   -2.9000 C.ar  114  HIS114      0.1986
     71  NE2       -0.0800   -7.2490   -3.8630 N.ar  114  HIS114     -0.2212
     72  N          0.3860  -12.8170   -9.3140 N.3   156  LEU156     -0.1245
     73  CA         1.4210  -12.5120   -8.3390 C.3   156  LEU156      0.1561
     74  C          2.4430  -13.6430   -8.2530 C.2   156  LEU156      0.2260
     75  O          3.6420  -13.3850   -8.1640 O.2   156  LEU156     -0.2867
     76  CB         0.8010  -12.2520   -6.9710 C.3   156  LEU156      0.0270
     77  CG         0.1110  -10.9020   -6.8360 C.3   156  LEU156      0.0019
     78  CD1       -0.6810  -10.8130   -5.5430 C.3   156  LEU156      0.0001
     79  CD2        1.1170   -9.7970   -6.8940 C.3   156  LEU156      0.0001
     80  N          5.0190  -13.3460  -10.9660 N.3   159  TYR159     -0.1241
     81  CA         5.9990  -12.2940  -10.6870 C.3   159  TYR159      0.1605
     82  C          6.9820  -12.7760   -9.6100 C.2   159  TYR159      0.2264
     83  O          8.1970  -12.6180   -9.7530 O.2   159  TYR159     -0.2867
     84  CB         5.3190  -10.9730  -10.2570 C.3   159  TYR159      0.0534
     85  CG         6.2990   -9.9810   -9.6590 C.ar  159  TYR159     -0.0201
     86  CD1        7.1230   -9.2150  -10.4550 C.ar  159  TYR159     -0.0009
     87  CD2        6.4640   -9.8800   -8.2960 C.ar  159  TYR159     -0.0009
     88  CE1        8.0510   -8.3370   -9.8990 C.ar  159  TYR159      0.0417
     89  CE2        7.4050   -9.0240   -7.7250 C.ar  159  TYR159      0.0417
     90  CZ         8.1880   -8.2540   -8.5190 C.ar  159  TYR159      0.1957
     91  OH         9.1140   -7.4280   -7.9230 O.3   159  TYR159     -0.2866
@<TRIPOS>BOND
     1    19    20    1
     2    19    18    1
     3    20    21    2
     4    17    18    1
     5    17    14    1
     6    13    14    1
     7    14    15    1
     8    23    21    1
     9    21    22    1
    10    15    16    2
    11    15    24   am
    12    24    25    1
    13    40    38    1
    14    38    37    1
    15    33    34    1
    16    25    26    1
    17    25    28    1
    18    26    27    2
    19    34    37    1
    20    34    35    1
    21    29    28    1
    22    29    30    1
    23    37    39    1
    24    80    81    1
    25    32    30   ar
    26    81    84    1
    27    81    82    1
    28    30    31   ar
    29    86    88   ar
    30    86    85   ar
    31    35    36    2
    32    84    85    1
    33    88    90   ar
    34    83    82    2
    35    85    87   ar
    36    72    73    1
    37    41    42    1
    38    90    91    1
    39    90    89   ar
    40    73    74    1
    41    73    76    1
    42    87    89   ar
    43    74    75    2
    44    42    45    1
    45    42    43    1
    46    12    11    1
    47    76    77    1
    48    79    77    1
    49    61    60    1
    50    45    46    1
    51    77    78    1
    52    43    44    2
    53    11    10   ar
    54    11     9   ar
    55    60    58   ar
    56    60    59   ar
    57    10     8   ar
    58    58    56   ar
    59     9     7   ar
    60    46    47    1
    61    47    48    1
    62    59    57   ar
    63     8     6   ar
    64    56    55   ar
    65     7     6   ar
    66     6     5    1
    67    57    55   ar
    68    71    69   ar
    69    71    70   ar
    70    55    54    1
    71    69    67   ar
    72    48    49    1
    73     5     2    1
    74    70    68   ar
    75    54    51    1
    76    67    68   ar
    77    67    66    1
    78    66    63    1
    79     2     1    1
    80     2     3    1
    81    52    53    2
    82    52    51    1
    83    51    50    1
    84    63    62    1
    85    63    64    1
    86     3     4    2
    87    64    65    2
