@<TRIPOS>MOLECULE
tmp/1oguA00.pdb
 195 185 0 0 0
SMALL
GASTEIGER

@<TRIPOS>ATOM
      1  N          4.2270   47.5370   40.3700 N.3    11  GLU11      -0.1245
      2  CA         2.8560   47.3580   40.8740 C.3    11  GLU11       0.1567
      3  C          2.7340   47.8010   42.3240 C.2    11  GLU11       0.2260
      4  O          3.7310   47.7740   43.0470 O.2    11  GLU11      -0.2867
      5  CB         2.3640   45.9100   40.6990 C.3    11  GLU11       0.0388
      6  CG         2.7540   44.9380   41.8070 C.3    11  GLU11       0.1160
      7  CD         3.1320   43.5320   41.3100 C.2    11  GLU11       0.3649
      8  OE1        3.2050   43.3000   40.0860 O.co2  11  GLU11      -0.2457
      9  OE2        3.3760   42.6430   42.1490 O.co2  11  GLU11      -0.2457
     10  N          1.8690   47.2390   46.1550 N.3    13  ILE13      -0.1231
     11  CA         2.0290   46.0680   46.9920 C.3    13  ILE13       0.1696
     12  C          1.0410   46.1460   48.1390 C.2    13  ILE13       0.2632
     13  O          0.3220   45.2060   48.3480 O.2    13  ILE13      -0.2714
     14  CB         3.5060   45.9170   47.4820 C.3    13  ILE13       0.0266
     15  CG1        4.2830   45.0750   46.4940 C.3    13  ILE13       0.0019
     16  CG2        3.5760   45.2450   48.8360 C.3    13  ILE13       0.0020
     17  CD1        5.7540   45.3640   46.4930 C.3    13  ILE13       0.0001
     18  N          0.9980   47.2650   48.8590 N.am   14  GLY14      -0.1718
     19  CA         0.0970   47.3940   49.9880 C.2    14  GLY14       0.1480
     20  C          0.3440   48.6040   50.8860 C.2    14  GLY14       0.2820
     21  O          1.1750   49.4900   50.5800 O.2    14  GLY14      -0.2669
     22  N         -0.3800   48.6190   52.0110 N.am   15  GLU15      -0.1929
     23  CA        -0.3770   49.7240   52.9840 C.3    15  GLU15       0.1736
     24  C         -0.1060   49.1940   54.3920 C.2    15  GLU15       0.2617
     25  O         -0.9500   48.5220   55.0200 O.2    15  GLU15      -0.2715
     26  CB        -1.7160   50.4790   52.9740 C.3    15  GLU15       0.0429
     27  CG        -1.7540   51.6830   52.0450 C.3    15  GLU15       0.1163
     28  CD        -3.1680   52.2090   51.7770 C.2    15  GLU15       0.3649
     29  OE1       -3.7900   52.7730   52.7150 O.co2  15  GLU15      -0.2457
     30  OE2       -3.6620   52.0640   50.6220 O.co2  15  GLU15      -0.2457
     31  N          1.0870   49.5020   54.8820 N.am   16  GLY16      -0.1955
     32  CA         1.4820   49.0950   56.2140 C.3    16  GLY16       0.1869
     33  C          1.2060   50.2160   57.1820 C.2    16  GLY16       0.2309
     34  O          0.1800   50.8930   57.0980 O.2    16  GLY16      -0.2863
     35  N          3.4970   51.1020   49.6550 N.3    21  VAL21      -0.1245
     36  CA         4.6400   50.3690   49.1310 C.3    21  VAL21       0.1561
     37  C          4.3060   49.8270   47.7670 C.2    21  VAL21       0.2260
     38  O          3.2420   49.2380   47.5850 O.2    21  VAL21      -0.2867
     39  CB         5.1170   49.2520   50.0990 C.3    21  VAL21       0.0252
     40  CG1        6.2620   48.4610   49.5080 C.3    21  VAL21       0.0019
     41  CG2        5.5580   49.8650   51.4260 C.3    21  VAL21       0.0019
     42  N         11.5440   47.8820   46.7360 N.3    34  ALA34      -0.1245
     43  CA        10.2260   48.3020   47.1880 C.3    34  ALA34       0.1562
     44  C         10.3260   49.7800   47.4850 C.2    34  ALA34       0.2260
     45  O         11.2640   50.2140   48.1630 O.2    34  ALA34      -0.2867
     46  CB         9.8190   47.5330   48.4180 C.3    34  ALA34       0.0290
     47  N          8.6170   52.9220   49.3460 N.3    36  LYS36      -0.1245
     48  CA         7.5720   53.3340   50.2530 C.3    36  LYS36       0.1561
     49  C          7.4430   54.8100   49.9740 C.2    36  LYS36       0.2260
     50  O          8.4200   55.5530   50.0080 O.2    36  LYS36      -0.2867
     51  CB         7.9470   53.0560   51.7030 C.3    36  LYS36       0.0271
     52  CG         6.8390   53.2770   52.7210 C.3    36  LYS36       0.0035
     53  CD         6.9930   52.2360   53.8470 C.3    36  LYS36       0.0206
     54  CE         6.4740   52.6820   55.2200 C.3    36  LYS36       0.1093
     55  NZ         6.9430   51.7070   56.2940 N.3    36  LYS36      -0.1314
     56  N         14.9690   43.7600   56.9490 N.3    64  VAL64      -0.1245
     57  CA        14.8230   44.4760   55.6980 C.3    64  VAL64       0.1561
     58  C         15.7830   45.6750   55.6080 C.2    64  VAL64       0.2260
     59  O         15.9830   46.4240   56.5780 O.2    64  VAL64      -0.2867
     60  CB        13.3800   44.9150   55.4990 C.3    64  VAL64       0.0252
     61  CG1       13.0770   46.1600   56.2800 C.3    64  VAL64       0.0019
     62  CG2       13.1400   45.1950   54.0700 C.3    64  VAL64       0.0019
     63  N         13.6490   50.3370   49.5680 N.3    80  PHE80      -0.1227
     64  CA        13.9910   49.0960   50.3120 C.3    80  PHE80       0.1736
     65  C         14.4140   47.9580   49.3980 C.2    80  PHE80       0.2595
     66  O         14.0310   47.9390   48.2240 O.2    80  PHE80      -0.2718
     67  CB        12.7600   48.5590   51.0180 C.3    80  PHE80       0.0547
     68  CG        12.3060   49.3580   52.1850 C.ar   80  PHE80      -0.0202
     69  CD1       11.2460   50.2400   52.0810 C.ar   80  PHE80      -0.0042
     70  CD2       12.8920   49.1900   53.4160 C.ar   80  PHE80      -0.0042
     71  CE1       10.8140   50.9600   53.1990 C.ar   80  PHE80      -0.0003
     72  CE2       12.4440   49.9230   54.5380 C.ar   80  PHE80      -0.0003
     73  CZ        11.4180   50.7830   54.4140 C.ar   80  PHE80      -0.0000
     74  N         15.1460   46.9730   49.9020 N.am   81  GLU81      -0.1965
     75  CA        15.3650   45.7800   49.0810 C.3    81  GLU81       0.1733
     76  C         14.0100   45.0820   48.8640 C.2    81  GLU81       0.2616
     77  O         13.1180   45.1230   49.7300 O.2    81  GLU81      -0.2715
     78  CB        16.3140   44.8280   49.7670 C.3    81  GLU81       0.0429
     79  CG        15.7100   44.2510   51.0360 C.3    81  GLU81       0.1163
     80  CD        16.6350   43.2540   51.6860 C.2    81  GLU81       0.3649
     81  OE1       17.1170   42.3530   50.9730 O.co2  81  GLU81      -0.2457
     82  OE2       16.9030   43.3930   52.9050 O.co2  81  GLU81      -0.2457
     83  N         13.8450   44.4490   47.7180 N.am   82  PHE82      -0.1960
     84  CA        12.5810   43.8210   47.4210 C.3    82  PHE82       0.1771
     85  C         12.5500   42.4450   47.9780 C.2    82  PHE82       0.2619
     86  O         13.4880   41.7180   47.7910 O.2    82  PHE82      -0.2715
     87  CB        12.3930   43.6670   45.9380 C.3    82  PHE82       0.0574
     88  CG        11.1020   43.0220   45.5860 C.ar   82  PHE82      -0.0200
     89  CD1        9.8970   43.7140   45.7420 C.ar   82  PHE82      -0.0042
     90  CD2       11.0860   41.7100   45.1050 C.ar   82  PHE82      -0.0042
     91  CE1        8.6890   43.1100   45.4370 C.ar   82  PHE82      -0.0003
     92  CE2        9.8980   41.0970   44.7850 C.ar   82  PHE82      -0.0003
     93  CZ         8.6880   41.8070   44.9510 C.ar   82  PHE82      -0.0000
     94  N         11.4720   42.0690   48.6440 N.am   83  LEU83      -0.1963
     95  CA        11.3160   40.6830   48.9840 C.3    83  LEU83       0.1728
     96  C         10.0460   40.2050   48.3240 C.2    83  LEU83       0.2616
     97  O          9.1780   41.0070   48.0600 O.2    83  LEU83      -0.2715
     98  CB        11.2980   40.5090   50.4820 C.3    83  LEU83       0.0311
     99  CG        12.6830   40.6750   51.1090 C.3    83  LEU83       0.0022
    100  CD1       12.6350   41.9470   51.9010 C.3    83  LEU83       0.0001
    101  CD2       13.0850   39.5000   51.9890 C.3    83  LEU83       0.0001
    102  N          9.9580   38.9120   48.0330 N.am   84  HIS84      -0.1959
    103  CA         8.9160   38.3570   47.1430 C.3    84  HIS84       0.1787
    104  C          7.4970   38.1970   47.6920 C.2    84  HIS84       0.2620
    105  O          6.5440   38.2550   46.9360 O.2    84  HIS84      -0.2715
    106  CB         9.3810   37.0480   46.5210 C.3    84  HIS84       0.0785
    107  CG        10.6620   37.1950   45.7540 C.ar   84  HIS84       0.0821
    108  ND1       10.7090   37.1810   44.3680 N.ar   84  HIS84      -0.2267
    109  CD2       11.9450   37.3910   46.1770 C.ar   84  HIS84       0.1154
    110  CE1       11.9650   37.3470   43.9750 C.ar   84  HIS84       0.1986
    111  NE2       12.7290   37.4860   45.0520 N.ar   84  HIS84      -0.2212
    112  N          7.3630   37.9630   48.9910 N.am   85  GLN85      -0.1963
    113  CA         6.0450   37.8910   49.6180 C.3    85  GLN85       0.1733
    114  C          6.1530   37.8260   51.1270 C.2    85  GLN85       0.2616
    115  O          7.2400   37.8270   51.6360 O.2    85  GLN85      -0.2715
    116  CB         5.2150   36.7630   49.0240 C.3    85  GLN85       0.0408
    117  CG         5.5340   35.3850   49.4320 C.3    85  GLN85       0.0908
    118  CD         4.3520   34.4650   49.0770 C.2    85  GLN85       0.2608
    119  OE1        3.2900   34.9500   48.6730 O.2    85  GLN85      -0.2717
    120  NE2        4.5330   33.1490   49.2210 N.am   85  GLN85      -0.0878
    121  N          5.0350   37.8440   51.8420 N.am   86  ASP86      -0.1971
    122  CA         5.0850   37.8400   53.2880 C.3    86  ASP86       0.1709
    123  C          4.7090   36.4840   53.8270 C.2    86  ASP86       0.2293
    124  O          4.2040   35.6470   53.0970 O.2    86  ASP86      -0.2864
    125  CB         4.1990   38.9470   53.8780 C.3    86  ASP86       0.1436
    126  CG         2.7410   38.8510   53.4590 C.2    86  ASP86       0.3671
    127  OD1        2.0900   37.8250   53.6960 O.co2  86  ASP86      -0.2456
    128  OD2        2.1340   39.7960   52.9490 O.co2  86  ASP86      -0.2456
    129  N          0.8290   35.3910   53.5430 N.3    89  LYS89      -0.1245
    130  CA         0.4680   34.9330   52.2220 C.3    89  LYS89       0.1561
    131  C          1.1080   33.5770   51.9230 C.2    89  LYS89       0.2260
    132  O          0.5290   32.7950   51.1460 O.2    89  LYS89      -0.2867
    133  CB         0.7960   35.9670   51.1600 C.3    89  LYS89       0.0271
    134  CG         0.2050   35.5880   49.7880 C.3    89  LYS89       0.0035
    135  CD         0.4420   36.6810   48.7040 C.3    89  LYS89       0.0206
    136  CE         0.4400   36.1060   47.2590 C.3    89  LYS89       0.1093
    137  NZ         1.5330   36.7370   46.4070 N.3    89  LYS89      -0.1314
    138  N          4.0970   40.3410   63.1600 N.3   129  LYS129     -0.1245
    139  CA         2.9280   39.5850   62.7360 C.3   129  LYS129      0.1561
    140  C          3.2790   39.0860   61.3290 C.2   129  LYS129      0.2260
    141  O          4.1890   39.6560   60.6790 O.2   129  LYS129     -0.2867
    142  CB         1.7010   40.4800   62.6960 C.3   129  LYS129      0.0271
    143  CG         1.9130   41.6650   61.8450 C.3   129  LYS129      0.0035
    144  CD         0.6240   42.3730   61.5360 C.3   129  LYS129      0.0206
    145  CE         0.8380   43.8990   61.3120 C.3   129  LYS129      0.1093
    146  NZ        -0.4750   44.6320   61.3480 N.3   129  LYS129     -0.1314
    147  N          2.1260   39.3700   58.3000 N.3   131  GLN131     -0.1231
    148  CA         2.1170   40.3580   57.2220 C.3   131  GLN131      0.1698
    149  C          3.4350   41.2090   57.1770 C.2   131  GLN131      0.2592
    150  O          3.7850   41.7650   56.1460 O.2   131  GLN131     -0.2718
    151  CB         0.9390   41.3550   57.3360 C.3   131  GLN131      0.0381
    152  CG        -0.5540   40.9770   57.7460 C.3   131  GLN131      0.0905
    153  CD        -0.8090   39.8580   58.8050 C.2   131  GLN131      0.2608
    154  OE1       -0.2140   39.8250   59.9090 O.2   131  GLN131     -0.2717
    155  NE2       -1.7460   38.9580   58.4660 N.am  131  GLN131     -0.0878
    156  N          4.1380   41.3530   58.3050 N.am  132  ASN132     -0.1974
    157  CA         5.3570   42.1730   58.3610 C.3   132  ASN132      0.1688
    158  C          6.6440   41.3330   58.3400 C.2   132  ASN132      0.2292
    159  O          7.7140   41.8720   58.6790 O.2   132  ASN132     -0.2864
    160  CB         5.4180   42.9880   59.6890 C.3   132  ASN132      0.1181
    161  CG         4.4300   44.1850   59.7500 C.2   132  ASN132      0.2629
    162  OD1        3.8540   44.6310   58.7250 O.2   132  ASN132     -0.2716
    163  ND2        4.2290   44.7130   60.9810 N.am  132  ASN132     -0.0877
    164  N          8.8790   39.0920   55.8750 N.3   134  LEU134     -0.1245
    165  CA         8.9550   38.9410   54.4140 C.3   134  LEU134      0.1561
    166  C          9.9390   37.8570   54.0200 C.2   134  LEU134      0.2260
    167  O         10.9890   37.7240   54.6620 O.2   134  LEU134     -0.2867
    168  CB         9.3410   40.2760   53.7600 C.3   134  LEU134      0.0270
    169  CG         8.4300   41.4580   54.1450 C.3   134  LEU134      0.0019
    170  CD1        8.8470   42.7270   53.4340 C.3   134  LEU134      0.0001
    171  CD2        6.9680   41.1510   53.8270 C.3   134  LEU134      0.0001
    172  N         10.2460   43.3600   58.8070 N.3   144  ALA144     -0.1231
    173  CA         9.9720   44.6350   58.1230 C.3   144  ALA144      0.1694
    174  C          8.9140   45.4630   58.8490 C.2   144  ALA144      0.2592
    175  O          8.3170   45.0340   59.8440 O.2   144  ALA144     -0.2718
    176  CB         9.5670   44.4150   56.6470 C.3   144  ALA144      0.0304
    177  N          8.6610   46.6250   58.2800 N.am  145  ASP145     -0.1974
    178  CA         7.6920   47.5860   58.7690 C.3   145  ASP145      0.1709
    179  C          7.9840   48.0300   60.1990 C.2   145  ASP145      0.2293
    180  O          7.4160   47.5010   61.1490 O.2   145  ASP145     -0.2864
    181  CB         6.2470   47.1190   58.6010 C.3   145  ASP145      0.1436
    182  CG         5.2820   48.3000   58.5620 C.2   145  ASP145      0.3671
    183  OD1        5.7560   49.4770   58.7210 O.co2 145  ASP145     -0.2456
    184  OD2        4.0420   48.1480   58.3900 O.co2 145  ASP145     -0.2456
    185  N          6.7400   28.5610   45.1580 N.3   296  ARG296     -0.1245
    186  CA         6.3990   29.7820   44.4000 C.3   296  ARG296      0.1563
    187  C          6.9760   29.4970   43.0400 C.2   296  ARG296      0.2260
    188  O          6.2350   28.9560   42.2220 O.2   296  ARG296     -0.2867
    189  CB         6.9050   31.1260   44.9700 C.3   296  ARG296      0.0307
    190  CG         6.3320   32.3120   44.1980 C.3   296  ARG296      0.0489
    191  CD         5.7950   33.4380   45.0650 C.3   296  ARG296      0.2205
    192  NE         5.2900   34.5680   44.2560 N.pl3 296  ARG296     -0.0865
    193  CZ         4.4680   35.5360   44.7390 C.cat 296  ARG296      0.5346
    194  NH1        4.0730   35.5280   46.0340 N.pl3 296  ARG296      0.1354
    195  NH2        4.0370   36.5270   43.9310 N.pl3 296  ARG296      0.1354
@<TRIPOS>BOND
     1     8     7   ar
     2     1     2    1
     3     5     2    1
     4     5     6    1
     5     2     3    1
     6     7     6    1
     7     7     9   ar
     8   188   187    2
     9     3     4    2
    10   187   186    1
    11   195   193    1
    12   110   108   ar
    13   110   111   ar
    14   190   189    1
    15   190   191    1
    16   192   193    2
    17   192   191    1
    18   108   107   ar
    19   186   189    1
    20   186   185    1
    21   193   194    1
    22    92    93   ar
    23    92    90   ar
    24    93    91   ar
    25   111   109   ar
    26    90    88   ar
    27    91    89   ar
    28    88    89   ar
    29    88    87    1
    30   107   109   ar
    31   107   106    1
    32    87    84    1
    33    10    11    1
    34   137   136    1
    35    17    15    1
    36    15    14    1
    37   106   103    1
    38    42    43    1
    39   105   104    2
    40    11    14    1
    41    11    12    1
    42   103   104    1
    43   103   102    1
    44    43    44    1
    45    43    46    1
    46   136   135    1
    47    84    83    1
    48    84    85    1
    49    14    16    1
    50    44    45    2
    51    38    37    2
    52   104   112   am
    53    83    76   am
    54    37    36    1
    55    86    85    2
    56    85    94   am
    57   102    96   am
    58    97    96    2
    59    12    13    2
    60    12    18    1
    61    66    65    2
    62    96    95    1
    63    94    95    1
    64   119   118    2
    65   135   134    1
    66    18    19    2
    67    76    75    1
    68    76    77    2
    69    95    98    1
    70   112   113    1
    71   116   117    1
    72   116   113    1
    73   118   120   am
    74   118   117    1
    75    75    78    1
    76    75    74    1
    77    36    35    1
    78    36    39    1
    79    47    48    1
    80    65    74   am
    81    65    64    1
    82    40    39    1
    83    63    64    1
    84   113   114    1
    85    78    79    1
    86   134   133    1
    87    49    50    2
    88    49    48    1
    89    19    20    1
    90    39    41    1
    91    48    51    1
    92    64    67    1
    93    98    99    1
    94    21    20    2
    95    30    28   ar
    96    20    22   am
    97    81    80   ar
    98    67    68    1
    99    79    80    1
   100    99   100    1
   101    99   101    1
   102   114   115    2
   103   114   121   am
   104   132   131    2
   105   133   130    1
   106    80    82   ar
   107    51    52    1
   108    28    27    1
   109    28    29   ar
   110   121   122    1
   111   131   130    1
   112    22    23    1
   113    27    26    1
   114    69    68   ar
   115    69    71   ar
   116    68    70   ar
   117   130   129    1
   118    52    53    1
   119   128   126   ar
   120    26    23    1
   121    23    24    1
   122   124   123    2
   123    71    73   ar
   124   122   123    1
   125   122   125    1
   126    70    72   ar
   127   170   169    1
   128   126   127   ar
   129   126   125    1
   130   168   169    1
   131   168   165    1
   132   171   169    1
   133    53    54    1
   134   166   165    1
   135   166   167    2
   136    62    60    1
   137    24    31   am
   138    24    25    2
   139   165   164    1
   140    73    72   ar
   141    31    32    1
   142    54    55    1
   143    60    57    1
   144    60    61    1
   145    58    57    1
   146    58    59    2
   147    57    56    1
   148   150   149    2
   149    32    33    1
   150   176   173    1
   151    34    33    2
   152   149   148    1
   153   149   156   am
   154   148   151    1
   155   148   147    1
   156   151   152    1
   157   152   153    1
   158   173   172    1
   159   173   174    1
   160   177   178    1
   161   177   174   am
   162   156   157    1
   163   158   157    1
   164   158   159    2
   165   157   160    1
   166   184   182   ar
   167   155   153   am
   168   182   181    1
   169   182   183   ar
   170   181   178    1
   171   162   161    2
   172   178   179    1
   173   153   154    2
   174   174   175    2
   175   160   161    1
   176   161   163   am
   177   179   180    2
   178   141   140    2
   179   145   146    1
   180   145   144    1
   181   140   139    1
   182   144   143    1
   183   143   142    1
   184   142   139    1
   185   139   138    1
