@<TRIPOS>MOLECULE
tmp/1ogvC07.pdb
 140 137 0 0 0
SMALL
GASTEIGER

@<TRIPOS>ATOM
      1  N        101.8150   42.0130   76.0260 N.3   143  GLY143     -0.1210
      2  CA       101.4960   42.7730   77.2140 C.3   143  GLY143      0.1956
      3  C        102.0880   42.0450   78.4050 C.2   143  GLY143      0.2612
      4  O        102.4390   40.8700   78.3110 O.2   143  GLY143     -0.2717
      5  N        102.1810   42.7360   79.5330 N.am  144  LYS144     -0.1965
      6  CA       102.7720   42.1760   80.7370 C.3   144  LYS144      0.1728
      7  C        101.7400   41.6540   81.7340 C.2   144  LYS144      0.2616
      8  O        101.9810   41.6580   82.9440 O.2   144  LYS144     -0.2715
      9  CB       103.6420   43.2500   81.3960 C.3   144  LYS144      0.0311
     10  CG       104.5410   43.9880   80.4090 C.3   144  LYS144      0.0038
     11  CD       105.4860   43.0230   79.7060 C.3   144  LYS144      0.0206
     12  CE       106.3610   43.7380   78.6880 C.3   144  LYS144      0.1093
     13  NZ       105.5590   44.3470   77.5930 N.3   144  LYS144     -0.1314
     14  N        100.5950   41.2020   81.2290 N.am  145  HIS145     -0.1973
     15  CA        99.5370   40.6890   82.0950 C.3   145  HIS145      0.1656
     16  C         99.9660   39.5070   82.9450 C.2   145  HIS145      0.2291
     17  O         99.5300   39.3780   84.0880 O.2   145  HIS145     -0.2864
     18  CB        98.3240   40.2850   81.2660 C.3   145  HIS145      0.0771
     19  CG        97.8400   41.3700   80.3610 C.ar  145  HIS145      0.0820
     20  ND1       98.5280   41.7560   79.2310 N.ar  145  HIS145     -0.2267
     21  CD2       96.7580   42.1790   80.4390 C.ar  145  HIS145      0.1154
     22  CE1       97.8890   42.7550   78.6520 C.ar  145  HIS145      0.1986
     23  NE2       96.8120   43.0300   79.3660 N.ar  145  HIS145     -0.2212
     24  N        102.1050   40.6500   85.8890 N.3   148  TRP148     -0.1241
     25  CA       101.2770   41.3710   86.8480 C.3   148  TRP148      0.1605
     26  C        100.3940   40.4350   87.6540 C.2   148  TRP148      0.2264
     27  O        100.1800   40.6450   88.8460 O.2   148  TRP148     -0.2867
     28  CB       100.4030   42.3970   86.1300 C.3   148  TRP148      0.0550
     29  CG       101.1670   43.5380   85.5240 C.ar  148  TRP148      0.0003
     30  CD1      100.7970   44.2630   84.4420 C.ar  148  TRP148      0.0946
     31  CD2      102.4150   44.1000   85.9730 C.ar  148  TRP148      0.0152
     32  NE1      101.7240   45.2430   84.1750 N.ar  148  TRP148     -0.2442
     33  CE2      102.7290   45.1650   85.1000 C.ar  148  TRP148      0.0810
     34  CE3      103.2950   43.8080   87.0230 C.ar  148  TRP148      0.0012
     35  CZ2      103.8880   45.9400   85.2430 C.ar  148  TRP148      0.0191
     36  CZ3      104.4540   44.5830   87.1650 C.ar  148  TRP148      0.0001
     37  CH2      104.7350   45.6340   86.2780 C.ar  148  TRP148      0.0015
     38  N        102.5080   38.7230   90.1210 N.3   151  LEU151     -0.1231
     39  CA       102.7900   39.5900   91.2590 C.3   151  LEU151      0.1693
     40  C        101.7480   39.4310   92.3620 C.2   151  LEU151      0.2592
     41  O        102.0350   39.6790   93.5320 O.2   151  LEU151     -0.2718
     42  CB       102.8020   41.0570   90.8360 C.3   151  LEU151      0.0284
     43  CG       104.1320   41.7710   90.6140 C.3   151  LEU151      0.0019
     44  CD1      103.8310   43.2340   90.2900 C.3   151  LEU151      0.0001
     45  CD2      105.0120   41.6640   91.8660 C.3   151  LEU151      0.0001
     46  N        100.5320   39.0460   91.9960 N.am  152  SER152     -0.1952
     47  CA        99.4960   38.8800   93.0030 C.3   152  SER152      0.1924
     48  C         99.7770   37.6640   93.8820 C.2   152  SER152      0.2314
     49  O         99.6230   37.7240   95.1060 O.2   152  SER152     -0.2863
     50  CB        98.1200   38.7320   92.3600 C.3   152  SER152      0.2116
     51  OG        97.1330   38.6230   93.3750 O.3   152  SER152     -0.2180
     52  N        102.6010   38.2320   96.0980 N.3   155  TRP155     -0.1241
     53  CA       102.1790   39.0930   97.1990 C.3   155  TRP155      0.1605
     54  C        101.7650   38.2970   98.4470 C.2   155  TRP155      0.2264
     55  O        102.1660   38.6370   99.5660 O.2   155  TRP155     -0.2867
     56  CB       101.0440   40.0030   96.7180 C.3   155  TRP155      0.0550
     57  CG       100.2170   40.6290   97.7950 C.ar  155  TRP155      0.0003
     58  CD1       98.9110   40.3580   98.0770 C.ar  155  TRP155      0.0946
     59  CD2      100.6230   41.6540   98.7120 C.ar  155  TRP155      0.0152
     60  NE1       98.4740   41.1480   99.1070 N.ar  155  TRP155     -0.2442
     61  CE2       99.5010   41.9550   99.5200 C.ar  155  TRP155      0.0810
     62  CE3      101.8230   42.3480   98.9300 C.ar  155  TRP155      0.0012
     63  CZ2       99.5380   42.9260  100.5360 C.ar  155  TRP155      0.0191
     64  CZ3      101.8640   43.3160   99.9420 C.ar  155  TRP155      0.0001
     65  CH2      100.7220   43.5930  100.7320 C.ar  155  TRP155      0.0015
     66  N         88.6670   39.5360  104.7050 N.3   201  PHE201     -0.1241
     67  CA        89.4920   39.3810  103.5170 C.3   201  PHE201      0.1605
     68  C         89.6540   37.9170  103.1390 C.2   201  PHE201      0.2264
     69  O         89.8650   37.5850  101.9630 O.2   201  PHE201     -0.2867
     70  CB        90.8470   40.0720  103.7180 C.3   201  PHE201      0.0534
     71  CG        90.7860   41.5510  103.4760 C.ar  201  PHE201     -0.0203
     72  CD1       90.7420   42.0500  102.1700 C.ar  201  PHE201     -0.0042
     73  CD2       90.6710   42.4460  104.5430 C.ar  201  PHE201     -0.0042
     74  CE1       90.5780   43.4160  101.9260 C.ar  201  PHE201     -0.0003
     75  CE2       90.5050   43.8150  104.3140 C.ar  201  PHE201     -0.0003
     76  CZ        90.4560   44.3040  103.0050 C.ar  201  PHE201     -0.0000
     77  N         89.0900   39.2620   81.0030 N.3   267  ARG267     -0.1245
     78  CA        89.3930   40.2920   81.9950 C.3   267  ARG267      0.1563
     79  C         88.6870   39.8500   83.2720 C.2   267  ARG267      0.2260
     80  O         89.2000   40.0410   84.3730 O.2   267  ARG267     -0.2867
     81  CB        88.9020   41.6740   81.5430 C.3   267  ARG267      0.0307
     82  CG        89.6980   42.2270   80.3620 C.3   267  ARG267      0.0489
     83  CD        89.3930   43.6900   80.0460 C.3   267  ARG267      0.2205
     84  NE        90.1090   44.0950   78.8380 N.pl3 267  ARG267     -0.0865
     85  CZ        91.3960   44.4350   78.7990 C.cat 267  ARG267      0.5346
     86  NH1       92.1230   44.4430   79.9060 N.pl3 267  ARG267      0.1354
     87  NH2       91.9660   44.7300   77.6410 N.pl3 267  ARG267      0.1354
     88  N         91.0820   37.0230   84.5890 N.3   270  ILE270     -0.1231
     89  CA        92.3150   37.4430   85.2240 C.3   270  ILE270      0.1692
     90  C         92.0420   38.1140   86.5720 C.2   270  ILE270      0.2592
     91  O         92.7640   37.8750   87.5390 O.2   270  ILE270     -0.2718
     92  CB        93.1680   38.3480   84.2860 C.3   270  ILE270      0.0266
     93  CG1       94.5910   38.4520   84.8440 C.3   270  ILE270      0.0019
     94  CG2       92.5210   39.7230   84.1140 C.3   270  ILE270      0.0020
     95  CD1       95.5970   39.0520   83.8770 C.3   270  ILE270      0.0001
     96  N         90.9850   38.9120   86.6620 N.am  271  TRP271     -0.1976
     97  CA        90.6690   39.5620   87.9320 C.3   271  TRP271      0.1640
     98  C         90.0930   38.6140   88.9950 C.2   271  TRP271      0.2290
     99  O         90.4040   38.7410   90.1780 O.2   271  TRP271     -0.2864
    100  CB        89.7110   40.7360   87.7180 C.3   271  TRP271      0.0576
    101  CG        90.4130   41.9800   87.2750 C.ar  271  TRP271      0.0006
    102  CD1       90.4570   42.4940   86.0080 C.ar  271  TRP271      0.0946
    103  CD2       91.1930   42.8650   88.0930 C.ar  271  TRP271      0.0152
    104  NE1       91.2130   43.6420   85.9880 N.ar  271  TRP271     -0.2442
    105  CE2       91.6780   43.8940   87.2510 C.ar  271  TRP271      0.0810
    106  CE3       91.5300   42.8870   89.4520 C.ar  271  TRP271      0.0012
    107  CZ2       92.4830   44.9380   87.7260 C.ar  271  TRP271      0.0191
    108  CZ3       92.3320   43.9270   89.9270 C.ar  271  TRP271      0.0001
    109  CH2       92.7990   44.9390   89.0600 C.ar  271  TRP271      0.0015
    110  N         93.3010   36.7690   90.2220 N.3   274  VAL274     -0.1245
    111  CA        94.2030   37.6930   90.8970 C.3   274  VAL274      0.1561
    112  C         93.6860   38.1610   92.2700 C.2   274  VAL274      0.2260
    113  O         94.4570   38.2540   93.2270 O.2   274  VAL274     -0.2867
    114  CB        94.4960   38.9200   89.9800 C.3   274  VAL274      0.0252
    115  CG1       94.8790   40.1380   90.8060 C.3   274  VAL274      0.0019
    116  CG2       95.6350   38.5700   89.0220 C.3   274  VAL274      0.0019
    117  N         95.3340   38.5190   96.2100 N.3   278  LEU278     -0.1245
    118  CA        95.3860   39.9200   96.5430 C.3   278  LEU278      0.1561
    119  C         94.6370   40.1620   97.8510 C.2   278  LEU278      0.2260
    120  O         95.1910   40.7430   98.7860 O.2   278  LEU278     -0.2867
    121  CB        94.7950   40.7440   95.4000 C.3   278  LEU278      0.0270
    122  CG        94.6990   42.2570   95.5990 C.3   278  LEU278      0.0019
    123  CD1       95.9880   42.7910   96.2200 C.3   278  LEU278      0.0001
    124  CD2       94.4190   42.9190   94.2500 C.3   278  LEU278      0.0001
    125  N         96.2520   40.7540  101.9810 N.3   282  ILE282     -0.1245
    126  CA        95.8150   41.8180  102.8670 C.3   282  ILE282      0.1561
    127  C         95.3210   41.2450  104.1870 C.2   282  ILE282      0.2260
    128  O         95.7360   41.6940  105.2600 O.2   282  ILE282     -0.2867
    129  CB        94.6880   42.6460  102.2100 C.3   282  ILE282      0.0252
    130  CG1       95.2250   43.3360  100.9510 C.3   282  ILE282      0.0019
    131  CG2       94.1550   43.6720  103.1880 C.3   282  ILE282      0.0019
    132  CD1       94.1820   44.0780  100.1510 C.3   282  ILE282      0.0001
    133  N         98.1980   39.9140  106.2130 N.3   285  LEU285     -0.1245
    134  CA        99.0470   41.0210  106.6370 C.3   285  LEU285      0.1561
    135  C         98.4560   41.7460  107.8470 C.2   285  LEU285      0.2260
    136  O         99.1870   42.1470  108.7570 O.2   285  LEU285     -0.2867
    137  CB        99.2560   42.0140  105.4860 C.3   285  LEU285      0.0270
    138  CG       100.2280   43.1710  105.7680 C.3   285  LEU285      0.0019
    139  CD1      101.6220   42.6130  105.9950 C.3   285  LEU285      0.0001
    140  CD2      100.2360   44.1550  104.6050 C.3   285  LEU285      0.0001
@<TRIPOS>BOND
     1     1     2    1
     2     2     3    1
     3    13    12    1
     4    87    85    1
     5     4     3    2
     6     3     5   am
     7    22    20   ar
     8    22    23   ar
     9    12    11    1
    10    85    84    2
    11    85    86    1
    12    84    83    1
    13    20    19   ar
    14    23    21   ar
    15     5     6    1
    16    11    10    1
    17    83    82    1
    18    19    21   ar
    19    19    18    1
    20    82    81    1
    21    10     9    1
    22     6     9    1
    23     6     7    1
    24    77    78    1
    25    14     7   am
    26    14    15    1
    27    18    15    1
    28    81    78    1
    29     7     8    2
    30    78    79    1
    31    15    16    1
    32    16    17    2
    33    79    80    2
    34    95    93    1
    35    94    92    1
    36    32    30   ar
    37    32    33   ar
    38    92    93    1
    39    92    89    1
    40    30    29   ar
    41    88    89    1
    42    33    35   ar
    43    33    31   ar
    44    89    90    1
    45    35    37   ar
    46    29    31   ar
    47    29    28    1
    48    24    25    1
    49    31    34   ar
    50   104   102   ar
    51   104   105   ar
    52   102   101   ar
    53    28    25    1
    54    37    36   ar
    55    90    96   am
    56    90    91    2
    57    96    97    1
    58    25    26    1
    59    34    36   ar
    60   105   107   ar
    61   105   103   ar
    62   101   100    1
    63   101   103   ar
    64    26    27    2
    65   100    97    1
    66   107   109   ar
    67    97    98    1
    68   103   106   ar
    69    98    99    2
    70   116   114    1
    71   109   108   ar
    72   106   108   ar
    73   114   115    1
    74   114   111    1
    75    38    39    1
    76   110   111    1
    77    44    43    1
    78    43    42    1
    79    43    45    1
    80    42    39    1
    81   111   112    1
    82    39    40    1
    83    46    40   am
    84    46    47    1
    85   112   113    2
    86    50    47    1
    87    50    51    1
    88    40    41    2
    89    47    48    1
    90    48    49    2
    91   124   122    1
    92   121   122    1
    93   121   118    1
    94   122   123    1
    95    52    53    1
    96   117   118    1
    97   118   119    1
    98    56    53    1
    99    56    57    1
   100    53    54    1
   101    57    58   ar
   102    57    59   ar
   103   119   120    2
   104    58    60   ar
   105    54    55    2
   106    59    62   ar
   107    59    61   ar
   108    62    64   ar
   109    60    61   ar
   110    61    63   ar
   111    64    65   ar
   112   132   130    1
   113    63    65   ar
   114   130   129    1
   115    74    72   ar
   116    74    76   ar
   117    69    68    2
   118   125   126    1
   119    72    71   ar
   120   129   126    1
   121   129   131    1
   122   126   127    1
   123    76    75   ar
   124    68    67    1
   125    71    70    1
   126    71    73   ar
   127    67    70    1
   128    67    66    1
   129   127   128    2
   130    75    73   ar
   131   140   138    1
   132   137   138    1
   133   137   134    1
   134   138   139    1
   135   133   134    1
   136   134   135    1
   137   135   136    2
