@<TRIPOS>MOLECULE
tmp/1ogvA00.pdb
 79 76 0 0 0
SMALL
GASTEIGER

@<TRIPOS>ATOM
      1  N         90.3970   49.3160  105.4560 N.3     6  ALA6       -0.1245
      2  CA        90.8140   48.4450  104.3680 C.3     6  ALA6        0.1562
      3  C         89.6460   47.7560  103.6750 C.2     6  ALA6        0.2260
      4  O         89.4770   47.8850  102.4510 O.2     6  ALA6       -0.2867
      5  CB        91.7960   47.4090  104.8800 C.3     6  ALA6        0.0290
      6  N         87.3890   50.1500  101.8810 N.3     9  SER9       -0.1202
      7  CA        88.0320   50.6040  100.6530 C.3     9  SER9        0.2020
      8  C         87.9800   49.5360   99.5710 C.2     9  SER9        0.2618
      9  O         87.8170   49.8530   98.3940 O.2     9  SER9       -0.2717
     10  CB        89.5050   50.9570  100.9030 C.3     9  SER9        0.2103
     11  OG        89.6350   52.2160  101.5250 O.3     9  SER9       -0.2182
     12  N         88.1360   48.2760   99.9680 N.am   10  PHE10      -0.1975
     13  CA        88.1080   47.2000   98.9920 C.3    10  PHE10       0.1639
     14  C         86.7640   47.1030   98.2970 C.2    10  PHE10       0.2290
     15  O         86.7100   46.9350   97.0810 O.2    10  PHE10      -0.2864
     16  CB        88.4210   45.8400   99.6210 C.3    10  PHE10       0.0560
     17  CG        88.4580   44.7230   98.6120 C.ar   10  PHE10      -0.0200
     18  CD1       89.5930   44.5070   97.8400 C.ar   10  PHE10      -0.0042
     19  CD2       87.3170   43.9700   98.3460 C.ar   10  PHE10      -0.0042
     20  CE1       89.5950   43.5680   96.8150 C.ar   10  PHE10      -0.0003
     21  CE2       87.3080   43.0280   97.3200 C.ar   10  PHE10      -0.0003
     22  CZ        88.4550   42.8310   96.5520 C.ar   10  PHE10      -0.0000
     23  N         84.7810   49.3710   97.7190 N.3    12  ILE12      -0.1231
     24  CA        84.6410   50.5200   96.8340 C.3    12  ILE12       0.1692
     25  C         85.3760   50.1740   95.5510 C.2    12  ILE12       0.2592
     26  O         84.8520   50.3380   94.4450 O.2    12  ILE12      -0.2718
     27  CB        85.2690   51.7900   97.4380 C.3    12  ILE12       0.0266
     28  CG1       84.5790   52.1410   98.7590 C.3    12  ILE12       0.0019
     29  CG2       85.1450   52.9440   96.4540 C.3    12  ILE12       0.0020
     30  CD1       83.0670   52.2850   98.6570 C.3    12  ILE12       0.0001
     31  N         86.5980   49.6880   95.7190 N.am   13  PHE13      -0.1976
     32  CA        87.4260   49.2780   94.6010 C.3    13  PHE13       0.1639
     33  C         86.6950   48.2390   93.7510 C.2    13  PHE13       0.2290
     34  O         86.7020   48.3170   92.5240 O.2    13  PHE13      -0.2864
     35  CB        88.7310   48.6660   95.1170 C.3    13  PHE13       0.0560
     36  CG        89.4840   47.8840   94.0760 C.ar   13  PHE13      -0.0200
     37  CD1       90.2310   48.5360   93.0970 C.ar   13  PHE13      -0.0042
     38  CD2       89.4140   46.4900   94.0520 C.ar   13  PHE13      -0.0042
     39  CE1       90.8960   47.8130   92.1070 C.ar   13  PHE13      -0.0003
     40  CE2       90.0760   45.7560   93.0640 C.ar   13  PHE13      -0.0003
     41  CZ        90.8180   46.4220   92.0900 C.ar   13  PHE13      -0.0000
     42  N         83.4500   47.6630   93.4060 N.3    15  ALA15      -0.1231
     43  CA        82.3090   48.2140   92.6880 C.3    15  ALA15       0.1694
     44  C         82.8470   48.9030   91.4400 C.2    15  ALA15       0.2593
     45  O         82.2180   48.8770   90.3820 O.2    15  ALA15      -0.2718
     46  CB        81.5620   49.2150   93.5650 C.3    15  ALA15       0.0304
     47  N         84.0190   49.5170   91.5720 N.am   16  GLY16      -0.1942
     48  CA        84.6300   50.1930   90.4410 C.3    16  GLY16       0.2014
     49  C         85.1730   49.1960   89.4340 C.2    16  GLY16       0.2638
     50  O         85.1750   49.4550   88.2270 O.2    16  GLY16      -0.2714
     51  N         85.6340   48.0530   89.9340 N.am   17  LEU17      -0.1977
     52  CA        86.1810   46.9960   89.0880 C.3    17  LEU17       0.1596
     53  C         85.0810   46.3390   88.2550 C.2    17  LEU17       0.2287
     54  O         85.2600   46.0740   87.0680 O.2    17  LEU17      -0.2864
     55  CB        86.8790   45.9370   89.9470 C.3    17  LEU17       0.0297
     56  CG        87.5300   44.7940   89.1620 C.3    17  LEU17       0.0022
     57  CD1       88.6230   45.3590   88.2810 C.3    17  LEU17       0.0001
     58  CD2       88.1030   43.7460   90.1150 C.3    17  LEU17       0.0001
     59  N         83.8740   48.6300   85.5220 N.3    20  TYR20      -0.1241
     60  CA        84.8410   48.5930   84.4380 C.3    20  TYR20       0.1605
     61  C         84.6780   47.3260   83.5960 C.2    20  TYR20       0.2264
     62  O         84.6410   47.4010   82.3670 O.2    20  TYR20      -0.2867
     63  CB        86.2600   48.6600   85.0260 C.3    20  TYR20       0.0534
     64  CG        87.3670   48.1570   84.1180 C.ar   20  TYR20      -0.0201
     65  CD1       87.9000   48.9590   83.1020 C.ar   20  TYR20      -0.0009
     66  CD2       87.8800   46.8730   84.2760 C.ar   20  TYR20      -0.0009
     67  CE1       88.9220   48.4820   82.2730 C.ar   20  TYR20       0.0417
     68  CE2       88.8860   46.3920   83.4600 C.ar   20  TYR20       0.0417
     69  CZ        89.4050   47.1950   82.4660 C.ar   20  TYR20       0.1957
     70  OH        90.4220   46.6990   81.6880 O.3    20  TYR20      -0.2866
     71  N         88.1120   51.5560   71.4290 N.3    52  LYS52      -0.1245
     72  CA        89.4610   51.0240   71.5850 C.3    52  LYS52       0.1561
     73  C         89.7790   50.4650   70.2030 C.2    52  LYS52       0.2260
     74  O         88.8690   50.0980   69.4600 O.2    52  LYS52      -0.2867
     75  CB        89.5320   49.9050   72.6400 C.3    52  LYS52       0.0271
     76  CG        89.0150   48.5470   72.1700 C.3    52  LYS52       0.0035
     77  CD        89.2620   47.4520   73.2070 C.3    52  LYS52       0.0206
     78  CE        90.7530   47.1490   73.3870 C.3    52  LYS52       0.1093
     79  NZ        91.0110   46.1360   74.4710 N.3    52  LYS52      -0.1314
@<TRIPOS>BOND
     1    74    73    2
     2    73    72    1
     3    71    72    1
     4    72    75    1
     5    76    75    1
     6    76    77    1
     7    77    78    1
     8    78    79    1
     9    70    69    1
    10    67    69   ar
    11    67    65   ar
    12    62    61    2
    13    69    68   ar
    14    65    64   ar
    15    68    66   ar
    16    61    60    1
    17    64    66   ar
    18    64    63    1
    19    60    63    1
    20    60    59    1
    21    54    53    2
    22    50    49    2
    23    53    52    1
    24    57    56    1
    25    52    51    1
    26    52    55    1
    27    56    55    1
    28    56    58    1
    29    49    51   am
    30    49    48    1
    31    45    44    2
    32    48    47    1
    33    44    47   am
    34    44    43    1
    35    41    39   ar
    36    41    40   ar
    37    39    37   ar
    38    34    33    2
    39    43    42    1
    40    43    46    1
    41    40    38   ar
    42    37    36   ar
    43    33    32    1
    44    38    36   ar
    45    36    35    1
    46    26    25    2
    47    32    35    1
    48    32    31    1
    49    25    31   am
    50    25    24    1
    51    29    27    1
    52    22    20   ar
    53    22    21   ar
    54    20    18   ar
    55    24    27    1
    56    24    23    1
    57    15    14    2
    58    21    19   ar
    59    27    28    1
    60    18    17   ar
    61    14    13    1
    62    19    17   ar
    63     9     8    2
    64    17    16    1
    65    30    28    1
    66    13    16    1
    67    13    12    1
    68     8    12   am
    69     8     7    1
    70     7    10    1
    71     7     6    1
    72    10    11    1
    73     4     3    2
    74     3     2    1
    75     2     5    1
    76     2     1    1
