@<TRIPOS>MOLECULE
tmp/1ogyL01.pdb
 234 231 0 0 0
SMALL
GASTEIGER

@<TRIPOS>ATOM
      1  N         12.7990  110.5640   24.7060 N.3    29  ARG29      -0.1245
      2  CA        12.8900  110.1950   23.2810 C.3    29  ARG29       0.1563
      3  C         11.9000  109.0780   23.0330 C.2    29  ARG29       0.2260
      4  O         11.6740  108.2680   23.9320 O.2    29  ARG29      -0.2867
      5  CB        14.2830  109.7120   22.9580 C.3    29  ARG29       0.0307
      6  CG        15.2690  110.8380   22.9580 C.3    29  ARG29       0.0489
      7  CD        16.6510  110.3540   23.3030 C.3    29  ARG29       0.2205
      8  NE        17.1390  109.3700   22.3490 N.pl3  29  ARG29      -0.0865
      9  CZ        18.0410  108.4420   22.6500 C.cat  29  ARG29       0.5346
     10  NH1       18.5390  108.3990   23.8850 N.pl3  29  ARG29       0.1354
     11  NH2       18.4330  107.5610   21.7250 N.pl3  29  ARG29       0.1354
     12  N         11.6300  104.5290   17.2320 N.3    32  ARG32      -0.1245
     13  CA        11.0130  104.3530   15.9320 C.3    32  ARG32       0.1563
     14  C         10.9960  102.9340   15.4510 C.2    32  ARG32       0.2260
     15  O         11.4780  102.0690   16.1340 O.2    32  ARG32      -0.2867
     16  CB        11.7030  105.2670   14.9070 C.3    32  ARG32       0.0307
     17  CG        12.3660  106.5150   15.5030 C.3    32  ARG32       0.0489
     18  CD        13.8430  106.3810   15.3380 C.3    32  ARG32       0.2205
     19  NE        14.5470  107.5980   15.6890 N.pl3  32  ARG32      -0.0865
     20  CZ        15.8760  107.7120   15.7160 C.cat  32  ARG32       0.5346
     21  NH1       16.6470  106.6770   15.4090 N.pl3  32  ARG32       0.1354
     22  NH2       16.4520  108.8580   16.0610 N.pl3  32  ARG32       0.1354
     23  N         11.6810  102.0710   11.7790 N.3    34  TYR34      -0.1227
     24  CA        12.5850  101.8360   10.6760 C.3    34  TYR34       0.1725
     25  C         13.6090  102.9490   10.7240 C.2    34  TYR34       0.2475
     26  O         13.3440  104.0030   11.3060 O.2    34  TYR34      -0.2730
     27  CB        11.8220  101.8060    9.3390 C.3    34  TYR34       0.0547
     28  CG        10.7380  102.8570    9.1240 C.ar   34  TYR34      -0.0200
     29  CD1       11.0020  104.0270    8.4400 C.ar   34  TYR34      -0.0009
     30  CD2        9.4340  102.6490    9.5690 C.ar   34  TYR34      -0.0009
     31  CE1        9.9880  104.9650    8.2030 C.ar   34  TYR34       0.0417
     32  CE2        8.4190  103.5820    9.3380 C.ar   34  TYR34       0.0417
     33  CZ         8.7030  104.7290    8.6570 C.ar   34  TYR34       0.1957
     34  OH         7.7160  105.6360    8.4020 O.3    34  TYR34      -0.2866
     35  N         14.8130  102.7280   10.1700 N.am   35  PRO35      -0.2492
     36  CA        15.8260  103.7920   10.1800 C.3    35  PRO35       0.1619
     37  C         15.0860  104.8830    9.4440 C.2    35  PRO35       0.2605
     38  O         13.9240  104.7050    9.0900 O.2    35  PRO35      -0.2715
     39  CB        16.9540  103.2460    9.3260 C.3    35  PRO35       0.0570
     40  CG        16.5880  101.8430    8.9730 C.2    35  PRO35      -0.0077
     41  CD        15.2350  101.5240    9.4410 C.2    35  PRO35       0.0634
     42  N         15.6980  106.0060    9.1540 N.am   36  GLU36      -0.1964
     43  CA        14.9440  107.0430    8.4170 C.3    36  GLU36       0.1733
     44  C         13.5260  107.3860    8.8320 C.2    36  GLU36       0.2616
     45  O         12.8460  108.0250    8.0580 O.2    36  GLU36      -0.2715
     46  CB        14.9330  106.7740    6.9070 C.3    36  GLU36       0.0429
     47  CG        16.2860  107.0680    6.2780 C.3    36  GLU36       0.1163
     48  CD        16.1710  107.6360    4.8940 C.2    36  GLU36       0.3649
     49  OE1       15.1510  108.3130    4.6440 O.co2  36  GLU36      -0.2457
     50  OE2       17.0970  107.4140    4.0680 O.co2  36  GLU36      -0.2457
     51  N         13.0470  106.9600    9.9940 N.am   37  GLN37      -0.1964
     52  CA        11.7350  107.4110   10.4140 C.3    37  GLN37       0.1718
     53  C         12.1350  108.6090   11.2760 C.2    37  GLN37       0.2458
     54  O         12.7810  108.4470   12.3060 O.2    37  GLN37      -0.2730
     55  CB        11.0270  106.3920   11.2970 C.3    37  GLN37       0.0407
     56  CG         9.8950  107.0330   12.1210 C.3    37  GLN37       0.0908
     57  CD         9.0450  106.0250   12.8730 C.2    37  GLN37       0.2608
     58  OE1        8.1530  106.3990   13.6400 O.2    37  GLN37      -0.2717
     59  NE2        9.3030  104.7410   12.6410 N.am   37  GLN37      -0.0878
     60  N         11.7610  109.8310   10.8850 N.am   38  PRO38      -0.2716
     61  CA        12.1290  111.0210   11.6510 C.3    38  PRO38       0.1521
     62  C         11.7190  110.9960   13.1150 C.2    38  PRO38       0.2440
     63  O         10.5380  110.8690   13.4390 O.2    38  PRO38      -0.2731
     64  CB        11.4470  112.1220   10.8810 C.3    38  PRO38       0.0310
     65  CG        10.2440  111.4530   10.3400 C.3    38  PRO38       0.0237
     66  CD        10.7910  110.1670    9.8400 C.3    38  PRO38       0.0939
     67  N         12.6920  111.0800   14.0280 N.am   39  PRO39      -0.2727
     68  CA        12.3990  111.0820   15.4600 C.3    39  PRO39       0.1402
     69  C         11.3940  112.1890   15.7190 C.2    39  PRO39       0.2269
     70  O         11.3780  113.2050   15.0340 O.2    39  PRO39      -0.2865
     71  CB        13.7240  111.4360   16.0970 C.3    39  PRO39       0.0296
     72  CG        14.7160  111.0070   15.1410 C.3    39  PRO39       0.0237
     73  CD        14.1320  111.0510   13.7690 C.3    39  PRO39       0.0939
     74  N         19.4010  129.5520   14.0610 N.3    55  ASN55      -0.1240
     75  CA        18.8090  128.2140   14.1250 C.3    55  ASN55       0.1653
     76  C         18.9970  127.7310   15.5420 C.2    55  ASN55       0.2266
     77  O         20.0440  127.1840   15.8810 O.2    55  ASN55      -0.2867
     78  CB        19.5240  127.2500   13.1770 C.3    55  ASN55       0.1155
     79  CG        18.8230  125.9250   13.0790 C.2    55  ASN55       0.2627
     80  OD1       18.7420  125.1920   14.0450 O.2    55  ASN55      -0.2716
     81  ND2       18.2960  125.6210   11.9100 N.am   55  ASN55      -0.0877
     82  N         18.0050  125.1190   17.1900 N.3    57  CYS57      -0.1221
     83  CA        18.3750  123.7310   17.3720 C.3    57  CYS57       0.1808
     84  C         19.8200  123.4740   17.1770 C.2    57  CYS57       0.2601
     85  O         20.3990  122.6900   17.8850 O.2    57  CYS57      -0.2717
     86  CB        17.6900  122.8260   16.3950 C.3    57  CYS57       0.0970
     87  SG        16.4030  123.5680   15.5570 S.3    57  CYS57      -0.0800
     88  N         20.4330  124.0920   16.1940 N.am   58  LEU58      -0.1979
     89  CA        21.8370  123.7830   15.9910 C.3    58  LEU58       0.1596
     90  C         22.7400  124.1860   17.1440 C.2    58  LEU58       0.2287
     91  O         23.9540  123.9550   17.1220 O.2    58  LEU58      -0.2864
     92  CB        22.3300  124.4030   14.6960 C.3    58  LEU58       0.0297
     93  CG        21.8210  123.6530   13.4710 C.3    58  LEU58       0.0022
     94  CD1       22.1790  124.4700   12.2690 C.3    58  LEU58       0.0001
     95  CD2       22.4000  122.2340   13.3820 C.3    58  LEU58       0.0001
     96  N         22.0070  120.5790   19.0070 N.3    61  HIS61      -0.1241
     97  CA        22.1670  119.4140   18.1640 C.3    61  HIS61       0.1621
     98  C         23.3140  119.5590   17.2220 C.2    61  HIS61       0.2264
     99  O         23.1400  119.9440   16.0750 O.2    61  HIS61      -0.2867
    100  CB        20.8720  119.1770   17.4200 C.3    61  HIS61       0.0745
    101  CG        19.7650  118.7460   18.3200 C.ar   61  HIS61       0.0817
    102  ND1       19.6270  117.4430   18.7350 N.ar   61  HIS61      -0.2268
    103  CD2       18.8050  119.4490   18.9670 C.ar   61  HIS61       0.1154
    104  CE1       18.6300  117.3590   19.5990 C.ar   61  HIS61       0.1986
    105  NE2       18.1150  118.5640   19.7570 N.ar   61  HIS61      -0.2212
    106  N         27.7760  118.1940   16.6130 N.3    63  ARG63      -0.1245
    107  CA        28.7630  117.1840   16.9640 C.3    63  ARG63       0.1563
    108  C         30.0710  117.8760   17.3310 C.2    63  ARG63       0.2260
    109  O         30.4540  118.8270   16.6530 O.2    63  ARG63      -0.2867
    110  CB        28.9880  116.2300   15.8010 C.3    63  ARG63       0.0307
    111  CG        27.8690  115.2720   15.6170 C.3    63  ARG63       0.0489
    112  CD        28.2800  114.2330   14.6650 C.3    63  ARG63       0.2205
    113  NE        27.5220  113.0190   14.8710 N.pl3  63  ARG63      -0.0865
    114  CZ        28.0000  111.9530   15.4960 C.cat  63  ARG63       0.5346
    115  NH1       29.2390  111.9610   15.9810 N.pl3  63  ARG63       0.1354
    116  NH2       27.2480  110.8690   15.6150 N.pl3  63  ARG63       0.1354
    117  N         24.6770  114.7530   18.9870 N.3    73  MET73      -0.1230
    118  CA        23.3060  115.2460   19.0190 C.3    73  MET73       0.1702
    119  C         22.5590  115.3630   17.6790 C.2    73  MET73       0.2592
    120  O         21.4220  115.8320   17.6400 O.2    73  MET73      -0.2718
    121  CB        23.2760  116.5740   19.7710 C.3    73  MET73       0.0401
    122  CG        23.6660  116.4560   21.2280 C.3    73  MET73       0.0596
    123  SD        22.3500  115.7670   22.1680 S.3    73  MET73      -0.1393
    124  CE        21.8310  117.1910   23.0540 C.3    73  MET73       0.0692
    125  N         23.2220  114.9920   16.5890 N.am   74  ILE74      -0.1966
    126  CA        22.6100  114.9140   15.2550 C.3    74  ILE74       0.1727
    127  C         23.4140  113.8380   14.5600 C.2    74  ILE74       0.2616
    128  O         24.6210  113.7010   14.7980 O.2    74  ILE74      -0.2715
    129  CB        22.7610  116.1390   14.3140 C.3    74  ILE74       0.0290
    130  CG1       23.8990  116.9990   14.7760 C.3    74  ILE74       0.0022
    131  CG2       21.4420  116.8650   14.1060 C.3    74  ILE74       0.0023
    132  CD1       24.7340  117.3650   13.6240 C.3    74  ILE74       0.0001
    133  N         22.7450  113.0690   13.7050 N.am   75  SER75      -0.1950
    134  CA        23.4150  112.0280   12.9480 C.3    75  SER75       0.1924
    135  C         24.1710  112.6820   11.8140 C.2    75  SER75       0.2314
    136  O         23.7160  113.6380   11.2090 O.2    75  SER75      -0.2863
    137  CB        22.4150  111.0290   12.3870 C.3    75  SER75       0.2116
    138  OG        21.2770  111.6690   11.8710 O.3    75  SER75      -0.2180
    139  N         24.3390  112.1060    8.9870 N.3    77  THR77      -0.1203
    140  CA        23.6520  112.0270    7.7200 C.3    77  THR77       0.1994
    141  C         23.1330  113.4020    7.4260 C.2    77  THR77       0.2617
    142  O         22.8040  113.7130    6.2740 O.2    77  THR77      -0.2717
    143  CB        22.4930  111.0270    7.7690 C.3    77  THR77       0.1784
    144  OG1       21.7050  111.2450    8.9440 O.3    77  THR77      -0.2211
    145  CG2       23.0140  109.6210    7.7940 C.3    77  THR77       0.0376
    146  N         23.0550  114.2260    8.4690 N.am   78  HIS78      -0.1975
    147  CA        22.6100  115.5970    8.2990 C.3    78  HIS78       0.1656
    148  C         23.7710  116.4960    7.8170 C.2    78  HIS78       0.2291
    149  O         23.6550  117.7160    7.7470 O.2    78  HIS78      -0.2864
    150  CB        22.0340  116.1290    9.5960 C.3    78  HIS78       0.0771
    151  CG        20.7570  115.4740   10.0030 C.ar   78  HIS78       0.0820
    152  ND1       20.7080  114.2180   10.5460 N.ar   78  HIS78      -0.2267
    153  CD2       19.4820  115.9210    9.9900 C.ar   78  HIS78       0.1154
    154  CE1       19.4600  113.9190   10.8550 C.ar   78  HIS78       0.1986
    155  NE2       18.6960  114.9360   10.5300 N.ar   78  HIS78      -0.2212
    156  N         26.6920  120.3320    9.5360 N.3    90  VAL90      -0.1245
    157  CA        25.3410  120.1880    9.0140 C.3    90  VAL90       0.1561
    158  C         25.1510  120.9590    7.7200 C.2    90  VAL90       0.2260
    159  O         25.5260  122.1270    7.6590 O.2    90  VAL90      -0.2867
    160  CB        24.3280  120.6830   10.0390 C.3    90  VAL90       0.0252
    161  CG1       22.9560  120.7590    9.4160 C.3    90  VAL90       0.0019
    162  CG2       24.3330  119.7690   11.2320 C.3    90  VAL90       0.0019
    163  N         20.7450  122.1650    3.3630 N.3    93  ARG93      -0.1231
    164  CA        19.5060  121.4530    3.0710 C.3    93  ARG93       0.1694
    165  C         19.5150  120.8330    4.4400 C.2    93  ARG93       0.2592
    166  O         20.5890  120.5050    4.9310 O.2    93  ARG93      -0.2718
    167  CB        19.6880  120.4050    1.9600 C.3    93  ARG93       0.0321
    168  CG        20.2870  119.0720    2.3760 C.3    93  ARG93       0.0489
    169  CD        21.0220  118.4040    1.2070 C.3    93  ARG93       0.2205
    170  NE        20.2740  117.3180    0.5800 N.pl3  93  ARG93      -0.0865
    171  CZ        20.7640  116.0910    0.4700 C.cat  93  ARG93       0.5346
    172  NH1       21.9810  115.8510    0.9480 N.pl3  93  ARG93       0.1354
    173  NH2       20.0580  115.1100   -0.0950 N.pl3  93  ARG93       0.1354
    174  N         18.3730  120.6960    5.0900 N.am   94  ARG94      -0.1966
    175  CA        18.3490  120.1690    6.4730 C.3    94  ARG94       0.1729
    176  C         18.3250  121.2920    7.4990 C.2    94  ARG94       0.2616
    177  O         17.9840  121.0430    8.6430 O.2    94  ARG94      -0.2715
    178  CB        19.5640  119.3070    6.8460 C.3    94  ARG94       0.0348
    179  CG        19.7200  117.9870    6.1400 C.3    94  ARG94       0.0492
    180  CD        19.1210  116.7670    6.8500 C.3    94  ARG94       0.2205
    181  NE        19.7110  115.5660    6.2540 N.pl3  94  ARG94      -0.0865
    182  CZ        19.2220  114.3340    6.3240 C.cat  94  ARG94       0.5346
    183  NH1       18.1040  114.0800    6.9730 N.pl3  94  ARG94       0.1354
    184  NH2       19.8660  113.3450    5.7230 N.pl3  94  ARG94       0.1354
    185  N         18.7140  122.5060    7.1210 N.am   95  TYR95      -0.1960
    186  CA        18.7060  123.6420    8.0390 C.3    95  TYR95       0.1771
    187  C         17.3250  123.8050    8.7000 C.2    95  TYR95       0.2620
    188  O         17.2060  123.8750    9.9020 O.2    95  TYR95      -0.2715
    189  CB        19.0520  124.8880    7.2630 C.3    95  TYR95       0.0574
    190  CG        19.2440  126.1040    8.0960 C.ar   95  TYR95      -0.0198
    191  CD1       20.3860  126.2680    8.8570 C.ar   95  TYR95      -0.0009
    192  CD2       18.2920  127.1240    8.0970 C.ar   95  TYR95      -0.0009
    193  CE1       20.5860  127.4280    9.6030 C.ar   95  TYR95       0.0417
    194  CE2       18.4780  128.2880    8.8390 C.ar   95  TYR95       0.0417
    195  CZ        19.6260  128.4340    9.5910 C.ar   95  TYR95       0.1957
    196  OH        19.8210  129.5770   10.3350 O.3    95  TYR95      -0.2866
    197  N         16.2630  123.8750    7.9210 N.am   96  PHE96      -0.1960
    198  CA        14.9540  124.0040    8.5410 C.3    96  PHE96       0.1771
    199  C         14.5360  122.6020    8.9210 C.2    96  PHE96       0.2619
    200  O         14.0950  121.8030    8.0820 O.2    96  PHE96      -0.2715
    201  CB        13.9350  124.6300    7.5770 C.3    96  PHE96       0.0574
    202  CG        14.1720  126.0830    7.3300 C.ar   96  PHE96      -0.0200
    203  CD1       15.0630  126.5100    6.3400 C.ar   96  PHE96      -0.0042
    204  CD2       13.5770  127.0360    8.1600 C.ar   96  PHE96      -0.0042
    205  CE1       15.3610  127.8610    6.1950 C.ar   96  PHE96      -0.0003
    206  CE2       13.8710  128.3850    8.0200 C.ar   96  PHE96      -0.0003
    207  CZ        14.7670  128.7920    7.0370 C.ar   96  PHE96      -0.0000
    208  N         14.7060  122.2980   10.1930 N.am   97  CYS97      -0.1968
    209  CA        14.3560  120.9910   10.7410 C.3    97  CYS97       0.1712
    210  C         12.8590  120.8180   10.8880 C.2    97  CYS97       0.2296
    211  O         12.3310  119.7600   10.5890 O.2    97  CYS97      -0.2864
    212  CB        14.9820  120.8760   12.0920 C.3    97  CYS97       0.0983
    213  SG        16.2180  122.1940   12.2370 S.3    97  CYS97      -0.0798
    214  N         10.7100  120.9410    9.2530 N.3    99  ALA99      -0.1231
    215  CA        10.1200  120.3610    8.0630 C.3    99  ALA99       0.1694
    216  C         10.0130  118.8700    8.1590 C.2    99  ALA99       0.2592
    217  O          9.1440  118.2650    7.5400 O.2    99  ALA99      -0.2718
    218  CB        10.9390  120.7170    6.8730 C.3    99  ALA99       0.0304
    219  N         10.9190  118.2800    8.9290 N.am  100  CYS100     -0.1956
    220  CA        10.9520  116.8390    9.1220 C.3   100  CYS100      0.1843
    221  C         10.6110  116.3780   10.5060 C.2   100  CYS100      0.2625
    222  O          9.9000  115.3990   10.6710 O.2   100  CYS100     -0.2714
    223  CB        12.3130  116.3180    8.7640 C.3   100  CYS100      0.0997
    224  SG        12.4400  116.2390    7.0440 S.3   100  CYS100     -0.0797
    225  N         11.1390  117.0740   11.5070 N.am  101  HIS101     -0.1973
    226  CA        10.8860  116.7300   12.9030 C.3   101  HIS101      0.1656
    227  C          9.6600  117.4590   13.4590 C.2   101  HIS101      0.2291
    228  O          9.5130  118.6870   13.4480 O.2   101  HIS101     -0.2864
    229  CB        12.1130  117.0130   13.7870 C.3   101  HIS101      0.0771
    230  CG        13.3110  116.1980   13.4400 C.ar  101  HIS101      0.0820
    231  ND1       13.3410  114.8300   13.5540 N.ar  101  HIS101     -0.2267
    232  CD2       14.5140  116.5590   12.9420 C.ar  101  HIS101      0.1154
    233  CE1       14.5120  114.3830   13.1380 C.ar  101  HIS101      0.1986
    234  NE2       15.2410  115.4140   12.7590 N.ar  101  HIS101     -0.2212
@<TRIPOS>BOND
     1   173   171    1
     2   171   170    2
     3   171   172    1
     4   170   169    1
     5   169   168    1
     6   167   168    1
     7   167   164    1
     8   164   163    1
     9   164   165    1
    10    50    48   ar
    11   165   166    2
    12   165   174   am
    13    49    48   ar
    14    48    47    1
    15   174   175    1
    16   184   182    1
    17   179   178    1
    18   179   180    1
    19   205   203   ar
    20   205   207   ar
    21   181   182    2
    22   181   180    1
    23   142   141    2
    24    47    46    1
    25   182   183    1
    26   203   202   ar
    27   175   178    1
    28   175   176    1
    29   218   215    1
    30    46    43    1
    31   207   206   ar
    32   224   223    1
    33   185   176   am
    34   185   186    1
    35   189   186    1
    36   189   190    1
    37   202   201    1
    38   202   204   ar
    39   141   140    1
    40   141   146   am
    41   176   177    2
    42   217   216    2
    43   201   198    1
    44   159   158    2
    45   158   157    1
    46   140   143    1
    47   140   139    1
    48   149   148    2
    49   143   145    1
    50   143   144    1
    51   148   147    1
    52   197   198    1
    53   197   187   am
    54   206   204   ar
    55   186   187    1
    56    45    44    2
    57   215   216    1
    58   215   214    1
    59   200   199    2
    60   190   192   ar
    61   190   191   ar
    62   192   194   ar
    63   216   219   am
    64    31    29   ar
    65    31    33   ar
    66   147   146    1
    67   147   150    1
    68    34    33    1
    69    43    44    1
    70    43    42    1
    71    29    28   ar
    72   198   199    1
    73    33    32   ar
    74   187   188    2
    75   223   220    1
    76    44    51   am
    77   194   195   ar
    78   191   193   ar
    79   199   208   am
    80   219   220    1
    81    40    39    1
    82    40    41    2
    83   157   156    1
    84   157   160    1
    85    38    37    2
    86   220   221    1
    87    28    27    1
    88    28    30   ar
    89    42    37   am
    90    39    36    1
    91    32    30   ar
    92    27    24    1
    93   161   160    1
    94    41    35    1
    95    37    36    1
    96   195   193   ar
    97   195   196    1
    98   150   151    1
    99    66    65    1
   100    66    60    1
   101   153   151   ar
   102   153   155   ar
   103    51    52    1
   104   151   152   ar
   105   160   162    1
   106    35    36    1
   107    35    25   am
   108   208   209    1
   109    65    64    1
   110    52    53    1
   111    52    55    1
   112   221   222    2
   113   221   225   am
   114   155   154   ar
   115   152   154   ar
   116   211   210    2
   117    24    25    1
   118    24    23    1
   119    25    26    2
   120   209   210    1
   121   209   212    1
   122    64    61    1
   123    60    53   am
   124    60    61    1
   125   136   135    2
   126    53    54    2
   127    55    56    1
   128   225   226    1
   129    61    62    1
   130   135   134    1
   131   138   137    1
   132    81    79   am
   133   212   213    1
   134    56    57    1
   135    94    93    1
   136   137   134    1
   137    59    57   am
   138   234   232   ar
   139   234   233   ar
   140    57    58    2
   141   226   227    1
   142   226   229    1
   143   232   230   ar
   144   134   133    1
   145    79    78    1
   146    79    80    2
   147    62    63    2
   148    62    67   am
   149   233   231   ar
   150    78    75    1
   151    95    93    1
   152   230   231   ar
   153   230   229    1
   154   228   227    2
   155    93    92    1
   156   132   130    1
   157   133   127   am
   158    73    67    1
   159    73    72    1
   160    67    68    1
   161    74    75    1
   162   131   129    1
   163    75    76    1
   164   129   130    1
   165   129   126    1
   166   127   128    2
   167   127   126    1
   168   112   113    1
   169   112   111    1
   170    92    89    1
   171   113   114    2
   172    16    17    1
   173    16    13    1
   174    70    69    2
   175    72    71    1
   176   126   125    1
   177    18    17    1
   178    18    19    1
   179    21    20    1
   180    14    13    1
   181    14    15    2
   182    68    69    1
   183    68    71    1
   184   114   116    1
   185   114   115    1
   186    76    77    2
   187    87    86    1
   188   111   110    1
   189    19    20    2
   190    20    22    1
   191   110   107    1
   192    13    12    1
   193    89    88    1
   194    89    90    1
   195    99    98    2
   196    88    84   am
   197    86    83    1
   198   125   119   am
   199   106   107    1
   200   109   108    2
   201   107   108    1
   202    91    90    2
   203    84    83    1
   204    84    85    2
   205    82    83    1
   206    98    97    1
   207   100    97    1
   208   100   101    1
   209   120   119    2
   210   119   118    1
   211    97    96    1
   212   101   102   ar
   213   101   103   ar
   214   102   104   ar
   215   103   105   ar
   216   117   118    1
   217   118   121    1
   218   104   105   ar
   219   121   122    1
   220   122   123    1
   221    11     9    1
   222   123   124    1
   223     8     9    2
   224     8     7    1
   225     9    10    1
   226     5     6    1
   227     5     2    1
   228     6     7    1
   229     3     2    1
   230     3     4    2
   231     2     1    1
