@<TRIPOS>MOLECULE
tmp/1ogyL00.pdb
 184 179 0 0 0
SMALL
GASTEIGER

@<TRIPOS>ATOM
      1  N         10.7190  115.2410   28.4130 N.3    27  ASP27      -0.1239
      2  CA        11.8880  115.0060   27.5620 C.3    27  ASP27       0.1674
      3  C         12.3220  113.5820   27.2220 C.2    27  ASP27       0.2266
      4  O         13.5160  113.3120   27.0640 O.2    27  ASP27      -0.2867
      5  CB        13.0940  115.7740   28.1360 C.3    27  ASP27       0.1410
      6  CG        12.8570  117.2850   28.2180 C.2    27  ASP27       0.3668
      7  OD1       12.9680  117.9550   27.1700 O.co2  27  ASP27      -0.2456
      8  OD2       12.5590  117.8080   29.3240 O.co2  27  ASP27      -0.2456
      9  N         12.7990  110.5640   24.7060 N.3    29  ARG29      -0.1231
     10  CA        12.8900  110.1950   23.2810 C.3    29  ARG29       0.1694
     11  C         11.9000  109.0780   23.0330 C.2    29  ARG29       0.2591
     12  O         11.6740  108.2680   23.9320 O.2    29  ARG29      -0.2718
     13  CB        14.2830  109.7120   22.9580 C.3    29  ARG29       0.0321
     14  CG        15.2690  110.8380   22.9580 C.3    29  ARG29       0.0489
     15  CD        16.6510  110.3540   23.3030 C.3    29  ARG29       0.2205
     16  NE        17.1390  109.3700   22.3490 N.pl3  29  ARG29      -0.0865
     17  CZ        18.0410  108.4420   22.6500 C.cat  29  ARG29       0.5346
     18  NH1       18.5390  108.3990   23.8850 N.pl3  29  ARG29       0.1354
     19  NH2       18.4330  107.5610   21.7250 N.pl3  29  ARG29       0.1354
     20  N         11.3460  108.9650   21.8290 N.am   30  VAL30      -0.1980
     21  CA        10.3070  107.9600   21.6360 C.3    30  VAL30       0.1595
     22  C         10.5730  106.5770   21.0590 C.2    30  VAL30       0.2287
     23  O          9.9960  105.5950   21.5440 O.2    30  VAL30      -0.2864
     24  CB         9.1090  108.5890   20.9230 C.3    30  VAL30       0.0276
     25  CG1        7.9830  107.5930   20.8120 C.3    30  VAL30       0.0022
     26  CG2        8.6210  109.7820   21.7290 C.3    30  VAL30       0.0022
     27  N         11.6300  104.5290   17.2320 N.3    32  ARG32      -0.1245
     28  CA        11.0130  104.3530   15.9320 C.3    32  ARG32       0.1563
     29  C         10.9960  102.9340   15.4510 C.2    32  ARG32       0.2260
     30  O         11.4780  102.0690   16.1340 O.2    32  ARG32      -0.2867
     31  CB        11.7030  105.2670   14.9070 C.3    32  ARG32       0.0307
     32  CG        12.3660  106.5150   15.5030 C.3    32  ARG32       0.0489
     33  CD        13.8430  106.3810   15.3380 C.3    32  ARG32       0.2205
     34  NE        14.5470  107.5980   15.6890 N.pl3  32  ARG32      -0.0865
     35  CZ        15.8760  107.7120   15.7160 C.cat  32  ARG32       0.5346
     36  NH1       16.6470  106.6770   15.4090 N.pl3  32  ARG32       0.1354
     37  NH2       16.4520  108.8580   16.0610 N.pl3  32  ARG32       0.1354
     38  N         12.6920  111.0800   14.0280 N.3    39  PRO39      -0.2102
     39  CA        12.3990  111.0820   15.4600 C.3    39  PRO39       0.1504
     40  C         11.3940  112.1890   15.7190 C.2    39  PRO39       0.2576
     41  O         11.3780  113.2050   15.0340 O.2    39  PRO39      -0.2718
     42  CB        13.7240  111.4360   16.0970 C.3    39  PRO39       0.0282
     43  CG        14.7160  111.0070   15.1410 C.3    39  PRO39       0.0208
     44  CD        14.1320  111.0510   13.7690 C.3    39  PRO39       0.0893
     45  N         10.5540  111.9950   16.7150 N.am   40  VAL40      -0.1966
     46  CA         9.5840  112.9970   17.0940 C.3    40  VAL40       0.1727
     47  C         10.2660  113.9360   18.1130 C.2    40  VAL40       0.2616
     48  O         11.1920  113.5120   18.8220 O.2    40  VAL40      -0.2715
     49  CB         8.3850  112.2950   17.6800 C.3    40  VAL40       0.0290
     50  CG1        7.7330  113.1450   18.7040 C.3    40  VAL40       0.0023
     51  CG2        7.4080  111.9900   16.5670 C.3    40  VAL40       0.0023
     52  N          9.8590  115.2020   18.1870 N.am   41  ILE41      -0.1964
     53  CA        10.5010  116.0920   19.1390 C.3    41  ILE41       0.1712
     54  C          9.8840  115.9230   20.5360 C.2    41  ILE41       0.2458
     55  O          8.7090  116.2570   20.7630 O.2    41  ILE41      -0.2730
     56  CB        10.3890  117.5600   18.7060 C.3    41  ILE41       0.0289
     57  CG1       11.0930  117.7610   17.3710 C.3    41  ILE41       0.0022
     58  CG2       11.1000  118.4480   19.6990 C.3    41  ILE41       0.0023
     59  CD1       10.8430  119.0700   16.7350 C.3    41  ILE41       0.0001
     60  N         10.6850  115.4080   21.5010 N.am   42  PRO42      -0.2716
     61  CA        10.2540  115.1690   22.8760 C.3    42  PRO42       0.1536
     62  C         10.2220  116.3980   23.7610 C.2    42  PRO42       0.2598
     63  O          9.8280  116.3150   24.9140 O.2    42  PRO42      -0.2715
     64  CB        11.2650  114.1590   23.3660 C.3    42  PRO42       0.0310
     65  CG        12.4810  114.6880   22.7970 C.3    42  PRO42       0.0237
     66  CD        12.1110  115.0620   21.3700 C.3    42  PRO42       0.0939
     67  N         10.6330  117.5410   23.2420 N.am   43  HIS43      -0.1974
     68  CA        10.6210  118.7330   24.0580 C.3    43  HIS43       0.1656
     69  C          9.7950  119.8420   23.4170 C.2    43  HIS43       0.2291
     70  O          9.0810  119.6020   22.4370 O.2    43  HIS43      -0.2864
     71  CB        12.0520  119.1800   24.3130 C.3    43  HIS43       0.0771
     72  CG        12.8750  119.3410   23.0670 C.ar   43  HIS43       0.0820
     73  ND1       12.6070  120.2940   22.1080 N.ar   43  HIS43      -0.2267
     74  CD2       14.0220  118.7360   22.6770 C.ar   43  HIS43       0.1154
     75  CE1       13.5570  120.2730   21.1920 C.ar   43  HIS43       0.1986
     76  NE2       14.4270  119.3400   21.5160 N.ar   43  HIS43      -0.2212
     77  N          9.0920  123.5320   21.4130 N.3    45  ILE45      -0.1245
     78  CA         9.6530  124.2740   20.3120 C.3    45  ILE45       0.1561
     79  C          9.4600  125.7550   20.5910 C.2    45  ILE45       0.2260
     80  O         10.4060  126.5340   20.5510 O.2    45  ILE45      -0.2867
     81  CB         8.9350  123.9370   19.0460 C.3    45  ILE45       0.0252
     82  CG1        9.3620  122.5550   18.5850 C.3    45  ILE45       0.0019
     83  CG2        9.1830  125.0160   18.0100 C.3    45  ILE45       0.0019
     84  CD1        8.6890  122.1450   17.2730 C.3    45  ILE45       0.0001
     85  N         11.7160  128.8810   19.9370 N.3    48  TYR48      -0.1241
     86  CA        12.8190  128.5370   19.0530 C.3    48  TYR48       0.1605
     87  C         12.6690  129.0910   17.6690 C.2    48  TYR48       0.2264
     88  O         11.6800  128.8460   16.9970 O.2    48  TYR48      -0.2867
     89  CB        12.9930  127.0170   19.0280 C.3    48  TYR48       0.0534
     90  CG        13.4370  126.4590   20.3770 C.ar   48  TYR48      -0.0201
     91  CD1       13.5780  125.0900   20.5870 C.ar   48  TYR48      -0.0009
     92  CD2       13.6950  127.3100   21.4490 C.ar   48  TYR48      -0.0009
     93  CE1       13.9590  124.5860   21.8380 C.ar   48  TYR48       0.0417
     94  CE2       14.0750  126.8250   22.6900 C.ar   48  TYR48       0.0417
     95  CZ        14.2030  125.4640   22.8850 C.ar   48  TYR48       0.1957
     96  OH        14.5510  124.9920   24.1400 O.3    48  TYR48      -0.2866
     97  N         13.9630  129.6300   13.7260 N.3    50  LEU50      -0.1245
     98  CA        14.6880  129.0390   12.5990 C.3    50  LEU50       0.1561
     99  C         14.5660  130.1020   11.4940 C.2    50  LEU50       0.2260
    100  O         13.4970  130.2610   10.8920 O.2    50  LEU50      -0.2867
    101  CB        14.0300  127.7250   12.1560 C.3    50  LEU50       0.0270
    102  CG        14.1870  126.5220   13.0590 C.3    50  LEU50       0.0019
    103  CD1       13.4940  125.3590   12.4580 C.3    50  LEU50       0.0001
    104  CD2       15.6480  126.2270   13.2170 C.3    50  LEU50       0.0001
    105  N         17.9870  127.9380   16.3730 N.3    56  ARG56      -0.1231
    106  CA        18.0810  127.5380   17.7610 C.3    56  ARG56       0.1694
    107  C         18.5240  126.0650   17.9710 C.2    56  ARG56       0.2592
    108  O         19.3570  125.7870   18.8330 O.2    56  ARG56      -0.2718
    109  CB        16.7480  127.8070   18.4500 C.3    56  ARG56       0.0321
    110  CG        16.7420  127.5560   19.9430 C.3    56  ARG56       0.0489
    111  CD        17.6980  128.4800   20.6900 C.3    56  ARG56       0.2205
    112  NE        17.4460  128.4420   22.1290 N.pl3  56  ARG56      -0.0865
    113  CZ        18.2860  128.9020   23.0460 C.cat  56  ARG56       0.5346
    114  NH1       19.4520  129.4330   22.6780 N.pl3  56  ARG56       0.1354
    115  NH2       17.9500  128.8340   24.3300 N.pl3  56  ARG56       0.1354
    116  N         18.0050  125.1190   17.1900 N.am   57  CYS57      -0.1970
    117  CA        18.3750  123.7310   17.3720 C.3    57  CYS57       0.1712
    118  C         19.8200  123.4740   17.1770 C.2    57  CYS57       0.2296
    119  O         20.3990  122.6900   17.8850 O.2    57  CYS57      -0.2864
    120  CB        17.6900  122.8260   16.3950 C.3    57  CYS57       0.0983
    121  SG        16.4030  123.5680   15.5570 S.3    57  CYS57      -0.0798
    122  N         22.1340  124.7890   18.1570 N.3    59  GLU59      -0.1231
    123  CA        22.8730  125.2240   19.3280 C.3    59  GLU59       0.1699
    124  C         23.0900  124.0450   20.2500 C.2    59  GLU59       0.2592
    125  O         24.0520  123.9800   21.0120 O.2    59  GLU59      -0.2718
    126  CB        22.0900  126.2990   20.0680 C.3    59  GLU59       0.0402
    127  CG        22.0510  127.6070   19.3530 C.3    59  GLU59       0.1161
    128  CD        21.9090  128.7500   20.3160 C.2    59  GLU59       0.3649
    129  OE1       20.7750  129.2780   20.4880 O.co2  59  GLU59      -0.2457
    130  OE2       22.9510  129.1010   20.9160 O.co2  59  GLU59      -0.2457
    131  N         22.1790  123.0970   20.1630 N.am   60  CYS60      -0.1956
    132  CA        22.2390  121.9250   20.9990 C.3    60  CYS60       0.1843
    133  C         22.5560  120.6690   20.2170 C.2    60  CYS60       0.2625
    134  O         23.3090  119.8180   20.6990 O.2    60  CYS60      -0.2714
    135  CB        20.9080  121.7760   21.7310 C.3    60  CYS60       0.0997
    136  SG        20.8540  122.8770   23.1080 S.3    60  CYS60      -0.0797
    137  N         22.0070  120.5790   19.0070 N.am   61  HIS61      -0.1973
    138  CA        22.1670  119.4140   18.1640 C.3    61  HIS61       0.1656
    139  C         23.3140  119.5590   17.2220 C.2    61  HIS61       0.2291
    140  O         23.1400  119.9440   16.0750 O.2    61  HIS61      -0.2864
    141  CB        20.8720  119.1770   17.4200 C.3    61  HIS61       0.0771
    142  CG        19.7650  118.7460   18.3200 C.ar   61  HIS61       0.0820
    143  ND1       19.6270  117.4430   18.7350 N.ar   61  HIS61      -0.2267
    144  CD2       18.8050  119.4490   18.9670 C.ar   61  HIS61       0.1154
    145  CE1       18.6300  117.3590   19.5990 C.ar   61  HIS61       0.1986
    146  NE2       18.1150  118.5640   19.7570 N.ar   61  HIS61      -0.2212
    147  N         27.0720  112.8390   20.8390 N.3    72  PRO72      -0.2102
    148  CA        26.5040  113.2820   19.5690 C.3    72  PRO72       0.1504
    149  C         25.0450  113.6650   19.6570 C.2    72  PRO72       0.2575
    150  O         24.2670  112.9680   20.2870 O.2    72  PRO72      -0.2718
    151  CB        26.7220  112.0840   18.6650 C.3    72  PRO72       0.0282
    152  CG        26.6800  110.9330   19.6230 C.3    72  PRO72       0.0208
    153  CD        27.5080  111.4430   20.7630 C.3    72  PRO72       0.0893
    154  N         24.6770  114.7530   18.9870 N.am   73  MET73      -0.1980
    155  CA        23.3060  115.2460   19.0190 C.3    73  MET73       0.1605
    156  C         22.5590  115.3630   17.6790 C.2    73  MET73       0.2287
    157  O         21.4220  115.8320   17.6400 O.2    73  MET73      -0.2864
    158  CB        23.2760  116.5740   19.7710 C.3    73  MET73       0.0413
    159  CG        23.6660  116.4560   21.2280 C.3    73  MET73       0.0598
    160  SD        22.3500  115.7670   22.1680 S.3    73  MET73      -0.1393
    161  CE        21.8310  117.1910   23.0540 C.3    73  MET73       0.0692
    162  N         14.7060  122.2980   10.1930 N.3    97  CYS97      -0.1221
    163  CA        14.3560  120.9910   10.7410 C.3    97  CYS97       0.1808
    164  C         12.8590  120.8180   10.8880 C.2    97  CYS97       0.2601
    165  O         12.3310  119.7600   10.5890 O.2    97  CYS97      -0.2717
    166  CB        14.9820  120.8760   12.0920 C.3    97  CYS97       0.0970
    167  SG        16.2180  122.1940   12.2370 S.3    97  CYS97      -0.0800
    168  N         12.1790  121.8660   11.3340 N.am   98  THR98      -0.1953
    169  CA        10.7510  121.7680   11.5310 C.3    98  THR98       0.1897
    170  C         10.0120  121.1380   10.3670 C.2    98  THR98       0.2313
    171  O          8.8370  120.8120   10.4990 O.2    98  THR98      -0.2863
    172  CB        10.1240  123.1480   11.8650 C.3    98  THR98       0.1794
    173  OG1       10.6640  124.1650   11.0130 O.3    98  THR98      -0.2208
    174  CG2       10.4300  123.5140   13.2970 C.3    98  THR98       0.0378
    175  N         11.1390  117.0740   11.5070 N.3   101  HIS101     -0.1241
    176  CA        10.8860  116.7300   12.9030 C.3   101  HIS101      0.1621
    177  C          9.6600  117.4590   13.4590 C.2   101  HIS101      0.2264
    178  O          9.5130  118.6870   13.4480 O.2   101  HIS101     -0.2867
    179  CB        12.1130  117.0130   13.7870 C.3   101  HIS101      0.0745
    180  CG        13.3110  116.1980   13.4400 C.ar  101  HIS101      0.0817
    181  ND1       13.3410  114.8300   13.5540 N.ar  101  HIS101     -0.2268
    182  CD2       14.5140  116.5590   12.9420 C.ar  101  HIS101      0.1154
    183  CE1       14.5120  114.3830   13.1380 C.ar  101  HIS101      0.1986
    184  NE2       15.2410  115.4140   12.7590 N.ar  101  HIS101     -0.2212
@<TRIPOS>BOND
     1   162   163    1
     2   170   171    2
     3   170   169    1
     4   165   164    2
     5   163   164    1
     6   163   166    1
     7   164   168   am
     8   100    99    2
     9   173   172    1
    10   168   169    1
    11    99    98    1
    12   175   176    1
    13   169   172    1
    14   172   174    1
    15   166   167    1
    16   101    98    1
    17   101   102    1
    18   103   102    1
    19    98    97    1
    20   184   182   ar
    21   184   183   ar
    22   176   177    1
    23   176   179    1
    24   182   180   ar
    25   102   104    1
    26   183   181   ar
    27   180   181   ar
    28   180   179    1
    29   178   177    2
    30    44    38    1
    31    44    43    1
    32    38    39    1
    33    31    32    1
    34    31    28    1
    35    41    40    2
    36    43    42    1
    37    33    32    1
    38    33    34    1
    39    36    35    1
    40    29    28    1
    41    29    30    2
    42    39    40    1
    43    39    42    1
    44   121   120    1
    45    34    35    2
    46    35    37    1
    47    40    45   am
    48    28    27    1
    49   140   139    2
    50   105   106    1
    51   120   117    1
    52    51    49    1
    53    45    46    1
    54    59    57    1
    55    88    87    2
    56    46    49    1
    57    46    47    1
    58   118   117    1
    59   118   119    2
    60   116   117    1
    61   116   107   am
    62   139   138    1
    63    84    82    1
    64    57    56    1
    65   141   138    1
    66   141   142    1
    67   157   156    2
    68    87    86    1
    69   156   155    1
    70    49    50    1
    71   106   107    1
    72   106   109    1
    73   107   108    2
    74    83    81    1
    75    47    52   am
    76    47    48    2
    77   122   123    1
    78   138   137    1
    79    52    53    1
    80   142   143   ar
    81   142   144   ar
    82   109   110    1
    83    82    81    1
    84   151   148    1
    85   151   152    1
    86    56    53    1
    87    56    58    1
    88   143   145   ar
    89   144   146   ar
    90   154   155    1
    91   154   149   am
    92   137   133   am
    93   155   158    1
    94    89    86    1
    95    89    90    1
    96    81    78    1
    97    86    85    1
    98    53    54    1
    99   123   126    1
   100   123   124    1
   101   127   126    1
   102   127   128    1
   103   148   149    1
   104   148   147    1
   105   145   146   ar
   106   152   153    1
   107   149   150    2
   108   158   159    1
   109   110   111    1
   110   131   124   am
   111   131   132    1
   112   133   134    2
   113   133   132    1
   114   124   125    2
   115    78    79    1
   116    78    77    1
   117   128   129   ar
   118   128   130   ar
   119    90    91   ar
   120    90    92   ar
   121    54    55    2
   122    54    60   am
   123    80    79    2
   124    91    93   ar
   125   111   112    1
   126   153   147    1
   127    25    24    1
   128    24    21    1
   129    24    26    1
   130   132   135    1
   131    22    23    2
   132    22    21    1
   133    75    76   ar
   134    75    73   ar
   135   159   160    1
   136    66    60    1
   137    66    65    1
   138    92    94   ar
   139    60    61    1
   140    76    74   ar
   141    21    20    1
   142    19    17    1
   143   135   136    1
   144    20    11   am
   145    93    95   ar
   146    73    72   ar
   147   112   113    2
   148   160   161    1
   149    16    17    2
   150    16    15    1
   151    70    69    2
   152    17    18    1
   153    74    72   ar
   154   114   113    1
   155    94    95   ar
   156    65    64    1
   157    61    64    1
   158    61    62    1
   159    95    96    1
   160    14    13    1
   161    14    15    1
   162    13    10    1
   163    11    10    1
   164    11    12    2
   165   113   115    1
   166    72    71    1
   167    67    62   am
   168    67    68    1
   169    10     9    1
   170    69    68    1
   171    62    63    2
   172    68    71    1
   173     4     3    2
   174     7     6   ar
   175     3     2    1
   176     2     5    1
   177     2     1    1
   178     5     6    1
   179     6     8   ar
