@<TRIPOS>MOLECULE
tmp/1oh2B01.pdb
 94 89 0 0 0
SMALL
GASTEIGER

@<TRIPOS>ATOM
      1  N        -25.9800    0.8600   -4.5230 N.3     7  GLY7       -0.1210
      2  CA       -25.8140    1.3080   -5.8850 C.3     7  GLY7        0.1956
      3  C        -24.6120    2.1730   -6.1910 C.2     7  GLY7        0.2611
      4  O        -23.7190    2.3710   -5.3800 O.2     7  GLY7       -0.2717
      5  N        -24.5880    2.6530   -7.4260 N.am    8  TYR8       -0.1976
      6  CA       -23.5350    3.5190   -7.9290 C.3     8  TYR8        0.1639
      7  C        -24.2240    4.5520   -8.8190 C.2     8  TYR8        0.2290
      8  O        -25.2630    4.2750   -9.4270 O.2     8  TYR8       -0.2864
      9  CB       -22.5150    2.6990   -8.7320 C.3     8  TYR8        0.0560
     10  CG       -21.5610    3.5430   -9.5320 C.ar    8  TYR8       -0.0198
     11  CD1      -21.9640    4.1270  -10.7430 C.ar    8  TYR8       -0.0009
     12  CD2      -20.2800    3.8170   -9.0630 C.ar    8  TYR8       -0.0009
     13  CE1      -21.1420    4.9570  -11.4360 C.ar    8  TYR8        0.0417
     14  CE2      -19.4330    4.6550   -9.7720 C.ar    8  TYR8        0.0417
     15  CZ       -19.8790    5.2200  -10.9540 C.ar    8  TYR8        0.1957
     16  OH       -19.0650    6.0720  -11.6570 O.3     8  TYR8       -0.2866
     17  N        -26.7880    2.5690  -11.3450 N.3    50  ILE50      -0.1245
     18  CA       -26.9770    1.1510  -11.0330 C.3    50  ILE50       0.1561
     19  C        -27.7920    1.0650   -9.7430 C.2    50  ILE50       0.2260
     20  O        -27.4350    1.6600   -8.7280 O.2    50  ILE50      -0.2867
     21  CB       -25.6220    0.4760  -10.8470 C.3    50  ILE50       0.0252
     22  CG1      -24.8840    0.4430  -12.1800 C.3    50  ILE50       0.0019
     23  CG2      -25.8310   -0.9500  -10.3450 C.3    50  ILE50       0.0019
     24  CD1      -23.4440   -0.0090  -11.9530 C.3    50  ILE50       0.0001
     25  N        -29.3040   -1.4390   -6.9340 N.3    52  ASN52      -0.1240
     26  CA       -29.2670   -2.7910   -6.3880 C.3    52  ASN52       0.1653
     27  C        -30.2750   -2.9610   -5.2560 C.2    52  ASN52       0.2266
     28  O        -30.1600   -2.3160   -4.2050 O.2    52  ASN52      -0.2867
     29  CB       -27.8500   -3.1240   -5.9080 C.3    52  ASN52       0.1155
     30  CG       -26.8150   -3.0110   -7.0240 C.2    52  ASN52       0.2627
     31  OD1      -26.9130   -3.6900   -8.0420 O.2    52  ASN52      -0.2716
     32  ND2      -25.8220   -2.1570   -6.8340 N.am   52  ASN52      -0.0877
     33  N        -30.5880  -10.6100   -5.0640 N.3    68  LYS68      -0.1245
     34  CA       -30.1820   -9.3110   -5.6140 C.3    68  LYS68       0.1561
     35  C        -30.5710   -9.1150   -7.0980 C.2    68  LYS68       0.2260
     36  O        -30.4760  -10.0530   -7.9180 O.2    68  LYS68      -0.2867
     37  CB       -28.6690   -9.1390   -5.5110 C.3    68  LYS68       0.0271
     38  CG       -28.1740   -7.8640   -6.1590 C.3    68  LYS68       0.0035
     39  CD       -26.6920   -7.8120   -6.0660 C.3    68  LYS68       0.0206
     40  CE       -26.1580   -6.4970   -6.5530 C.3    68  LYS68       0.1093
     41  NZ       -24.6920   -6.4560   -6.2730 N.3    68  LYS68      -0.1314
     42  N        -11.5390   -4.0630  -10.0790 N.3   124  ALA124     -0.1245
     43  CA       -11.1710   -3.0670  -11.0720 C.3   124  ALA124      0.1562
     44  C        -10.1280   -2.0630  -10.6250 C.2   124  ALA124      0.2260
     45  O         -9.6260   -2.1080   -9.4970 O.2   124  ALA124     -0.2867
     46  CB       -12.4090   -2.2990  -11.5180 C.3   124  ALA124      0.0290
     47  N        -10.3420    1.5190  -10.4010 N.3   126  HIS126     -0.1241
     48  CA       -11.3370    2.5790  -10.3940 C.3   126  HIS126      0.1621
     49  C        -11.1350    3.8640  -11.1910 C.2   126  HIS126      0.2264
     50  O        -12.0360    4.2940  -11.9170 O.2   126  HIS126     -0.2867
     51  CB       -11.7620    2.9230   -8.9670 C.3   126  HIS126      0.0745
     52  CG       -12.7000    4.0800   -8.9150 C.ar  126  HIS126      0.0817
     53  ND1      -12.2540    5.3760   -8.7940 N.ar  126  HIS126     -0.2268
     54  CD2      -14.0300    4.1580   -9.1640 C.ar  126  HIS126      0.1154
     55  CE1      -13.2660    6.2060   -8.9830 C.ar  126  HIS126      0.1986
     56  NE2      -14.3540    5.4920   -9.2070 N.ar  126  HIS126     -0.2212
     57  N        -11.7060    5.6020   -1.9180 N.3   365  PHE365     -0.1241
     58  CA       -12.9900    4.9530   -2.0720 C.3   365  PHE365      0.1605
     59  C        -14.1540    5.4750   -1.2580 C.2   365  PHE365      0.2264
     60  O        -15.2430    4.9350   -1.3810 O.2   365  PHE365     -0.2867
     61  CB       -12.8260    3.4450   -1.9210 C.3   365  PHE365      0.0534
     62  CG       -11.8770    2.8440   -2.9270 C.ar  365  PHE365     -0.0203
     63  CD1      -12.1600    2.8950   -4.2880 C.ar  365  PHE365     -0.0042
     64  CD2      -10.6920    2.2600   -2.5200 C.ar  365  PHE365     -0.0042
     65  CE1      -11.2800    2.3800   -5.2150 C.ar  365  PHE365     -0.0003
     66  CE2       -9.8000    1.7370   -3.4520 C.ar  365  PHE365     -0.0003
     67  CZ       -10.0940    1.7980   -4.7940 C.ar  365  PHE365     -0.0000
     68  N        -17.1500    7.5680   -0.7890 N.3   367  ARG367     -0.1245
     69  CA       -17.8240    8.1650   -1.9110 C.3   367  ARG367      0.1563
     70  C        -18.6020    9.4160   -2.0820 C.2   367  ARG367      0.2260
     71  O        -18.2680   10.1640   -3.0050 O.2   367  ARG367     -0.2867
     72  CB       -18.4850    7.1060   -2.7910 C.3   367  ARG367      0.0307
     73  CG       -17.7560    6.8980   -4.1290 C.3   367  ARG367      0.0489
     74  CD       -17.3210    8.1670   -4.9130 C.3   367  ARG367      0.2205
     75  NE       -15.9440    8.5110   -4.5890 N.pl3 367  ARG367     -0.0865
     76  CZ       -14.8700    8.1700   -5.2920 C.cat 367  ARG367      0.5346
     77  NH1      -14.9640    7.4960   -6.4190 N.pl3 367  ARG367      0.1354
     78  NH2      -13.6780    8.3500   -4.7600 N.pl3 367  ARG367      0.1354
     79  N        -21.5630    5.7020   -4.3070 N.3   412  ALA412     -0.1231
     80  CA       -21.8360    4.3060   -4.1760 C.3   412  ALA412      0.1694
     81  C        -22.0220    4.0360   -2.6900 C.2   412  ALA412      0.2592
     82  O        -21.4480    4.7130   -1.8210 O.2   412  ALA412     -0.2718
     83  CB       -20.6970    3.4970   -4.7830 C.3   412  ALA412      0.0304
     84  N        -22.9320    3.1150   -2.4180 N.am  413  PHE413     -0.1976
     85  CA       -23.3270    2.7640   -1.0680 C.3   413  PHE413      0.1639
     86  C        -23.9980    1.3970   -1.1340 C.2   413  PHE413      0.2290
     87  O        -24.5770    0.9720   -0.1010 O.2   413  PHE413     -0.2864
     88  CB       -24.3510    3.7900   -0.5880 C.3   413  PHE413      0.0560
     89  CG       -25.4090    4.0850   -1.6080 C.ar  413  PHE413     -0.0200
     90  CD1      -25.2030    5.0700   -2.5760 C.ar  413  PHE413     -0.0042
     91  CD2      -26.5640    3.3110   -1.6840 C.ar  413  PHE413     -0.0042
     92  CE1      -26.1200    5.2660   -3.6010 C.ar  413  PHE413     -0.0003
     93  CE2      -27.4910    3.5110   -2.7190 C.ar  413  PHE413     -0.0003
     94  CZ       -27.2620    4.4830   -3.6700 C.ar  413  PHE413     -0.0000
@<TRIPOS>BOND
     1    22    24    1
     2    22    21    1
     3    50    49    2
     4    16    15    1
     5    46    43    1
     6    13    15   ar
     7    13    11   ar
     8    17    18    1
     9    49    48    1
    10    43    44    1
    11    43    42    1
    12    18    21    1
    13    18    19    1
    14    15    14   ar
    15    21    23    1
    16    11    10   ar
    17    44    45    2
    18    47    48    1
    19    48    51    1
    20    14    12   ar
    21    19    20    2
    22    10    12   ar
    23    10     9    1
    24     8     7    2
    25    56    54   ar
    26    56    55   ar
    27    54    52   ar
    28    55    53   ar
    29    51    52    1
    30    52    53   ar
    31     7     6    1
    32     9     6    1
    33    31    30    2
    34     6     5    1
    35    36    35    2
    36     5     3   am
    37    35    34    1
    38    30    32   am
    39    30    29    1
    40    25    26    1
    41    40    41    1
    42    40    39    1
    43    77    76    1
    44    26    29    1
    45    26    27    1
    46     3     2    1
    47     3     4    2
    48    38    39    1
    49    38    37    1
    50     2     1    1
    51    34    37    1
    52    34    33    1
    53    76    78    1
    54    76    75    2
    55    27    28    2
    56    65    67   ar
    57    65    63   ar
    58    74    75    1
    59    74    73    1
    60    67    66   ar
    61    83    80    1
    62    79    80    1
    63    63    62   ar
    64    80    81    1
    65    73    72    1
    66    94    92   ar
    67    94    93   ar
    68    92    90   ar
    69    66    64   ar
    70    71    70    2
    71    62    64   ar
    72    62    61    1
    73    72    69    1
    74    93    91   ar
    75    81    84   am
    76    81    82    2
    77    90    89   ar
    78    84    85    1
    79    70    69    1
    80    58    61    1
    81    58    57    1
    82    58    59    1
    83    69    68    1
    84    91    89   ar
    85    89    88    1
    86    60    59    2
    87    86    85    1
    88    86    87    2
    89    85    88    1
