@<TRIPOS>MOLECULE
tmp/1oh2B00.pdb
 115 110 0 0 0
SMALL
GASTEIGER

@<TRIPOS>ATOM
      1  N        -24.5880    2.6530   -7.4260 N.3     8  TYR8       -0.1241
      2  CA       -23.5350    3.5190   -7.9290 C.3     8  TYR8        0.1605
      3  C        -24.2240    4.5520   -8.8190 C.2     8  TYR8        0.2264
      4  O        -25.2630    4.2750   -9.4270 O.2     8  TYR8       -0.2867
      5  CB       -22.5150    2.6990   -8.7320 C.3     8  TYR8        0.0534
      6  CG       -21.5610    3.5430   -9.5320 C.ar    8  TYR8       -0.0201
      7  CD1      -21.9640    4.1270  -10.7430 C.ar    8  TYR8       -0.0009
      8  CD2      -20.2800    3.8170   -9.0630 C.ar    8  TYR8       -0.0009
      9  CE1      -21.1420    4.9570  -11.4360 C.ar    8  TYR8        0.0417
     10  CE2      -19.4330    4.6550   -9.7720 C.ar    8  TYR8        0.0417
     11  CZ       -19.8790    5.2200  -10.9540 C.ar    8  TYR8        0.1957
     12  OH       -19.0650    6.0720  -11.6570 O.3     8  TYR8       -0.2866
     13  N        -23.0270    8.1880  -11.2920 N.3    10  PRO10      -0.2116
     14  CA       -22.1510    9.2820  -11.6960 C.3    10  PRO10       0.1372
     15  C        -23.1190   10.1310  -12.5200 C.2    10  PRO10       0.2244
     16  O        -24.0730    9.6080  -13.1040 O.2    10  PRO10      -0.2868
     17  CB       -21.1610    8.4870  -12.4720 C.3    10  PRO10       0.0268
     18  CG       -21.8900    7.2450  -12.9280 C.3    10  PRO10       0.0207
     19  CD       -22.8190    6.8760  -12.1350 C.3    10  PRO10       0.0892
     20  N        -24.8760    7.7250  -15.5640 N.3    48  TYR48      -0.1241
     21  CA       -24.9160    6.2890  -15.4090 C.3    48  TYR48       0.1605
     22  C        -25.3780    5.9300  -13.9900 C.2    48  TYR48       0.2264
     23  O        -24.8210    6.4250  -13.0060 O.2    48  TYR48      -0.2867
     24  CB       -23.5200    5.7360  -15.6680 C.3    48  TYR48       0.0534
     25  CG       -23.4630    4.2450  -15.6280 C.ar   48  TYR48      -0.0201
     26  CD1      -23.8810    3.5020  -16.7220 C.ar   48  TYR48      -0.0009
     27  CD2      -23.0900    3.5630  -14.4650 C.ar   48  TYR48      -0.0009
     28  CE1      -23.9440    2.1370  -16.6710 C.ar   48  TYR48       0.0417
     29  CE2      -23.1550    2.1850  -14.4130 C.ar   48  TYR48       0.0417
     30  CZ       -23.5910    1.4810  -15.5290 C.ar   48  TYR48       0.1957
     31  OH       -23.7260    0.1130  -15.5080 O.3    48  TYR48      -0.2866
     32  N        -26.7880    2.5690  -11.3450 N.3    50  ILE50      -0.1245
     33  CA       -26.9770    1.1510  -11.0330 C.3    50  ILE50       0.1561
     34  C        -27.7920    1.0650   -9.7430 C.2    50  ILE50       0.2260
     35  O        -27.4350    1.6600   -8.7280 O.2    50  ILE50      -0.2867
     36  CB       -25.6220    0.4760  -10.8470 C.3    50  ILE50       0.0252
     37  CG1      -24.8840    0.4430  -12.1800 C.3    50  ILE50       0.0019
     38  CG2      -25.8310   -0.9500  -10.3450 C.3    50  ILE50       0.0019
     39  CD1      -23.4440   -0.0090  -11.9530 C.3    50  ILE50       0.0001
     40  N        -30.0150   -6.0400  -10.1610 N.3    70  MET70      -0.1245
     41  CA       -29.3240   -4.8040  -10.5130 C.3    70  MET70       0.1570
     42  C        -30.0070   -4.2900  -11.7590 C.2    70  MET70       0.2261
     43  O        -30.1280   -5.0280  -12.7580 O.2    70  MET70      -0.2867
     44  CB       -27.8720   -5.0190  -10.8450 C.3    70  MET70       0.0387
     45  CG       -27.2570   -3.7620  -11.3550 C.3    70  MET70       0.0595
     46  SD       -25.6250   -4.0470  -11.8940 S.3    70  MET70      -0.1393
     47  CE       -24.7550   -3.5310  -10.4110 C.3    70  MET70       0.0692
     48  N        -29.4500   -6.1340  -15.2210 N.3    91  LEU91      -0.1245
     49  CA       -28.0860   -6.6210  -15.3790 C.3    91  LEU91       0.1561
     50  C        -27.8190   -7.8670  -14.5750 C.2    91  LEU91       0.2260
     51  O        -26.9220   -8.6350  -14.8960 O.2    91  LEU91      -0.2867
     52  CB       -27.0980   -5.5530  -14.9220 C.3    91  LEU91       0.0270
     53  CG       -27.0470   -4.4300  -15.9520 C.3    91  LEU91       0.0019
     54  CD1      -28.4410   -3.8330  -16.1190 C.3    91  LEU91       0.0001
     55  CD2      -26.0820   -3.3500  -15.4800 C.3    91  LEU91       0.0001
     56  N        -22.5880  -10.6300  -11.8200 N.3   118  PHE118     -0.1241
     57  CA       -21.2000  -10.2690  -12.0900 C.3   118  PHE118      0.1605
     58  C        -20.5140  -11.1060  -10.9790 C.2   118  PHE118      0.2264
     59  O        -21.0060  -11.1670   -9.8420 O.2   118  PHE118     -0.2867
     60  CB       -20.8740   -8.7920  -11.7900 C.3   118  PHE118      0.0534
     61  CG       -21.6880   -7.8020  -12.5500 C.ar  118  PHE118     -0.0203
     62  CD1      -22.4050   -8.1680  -13.6800 C.ar  118  PHE118     -0.0042
     63  CD2      -21.8120   -6.5020  -12.0730 C.ar  118  PHE118     -0.0042
     64  CE1      -23.2410   -7.2560  -14.3140 C.ar  118  PHE118     -0.0003
     65  CE2      -22.6560   -5.5780  -12.7060 C.ar  118  PHE118     -0.0003
     66  CZ       -23.3720   -5.9590  -13.8280 C.ar  118  PHE118     -0.0000
     67  N        -14.6410  -10.2010   -9.0870 N.3   122  ASN122     -0.1240
     68  CA       -14.0920   -9.3800  -10.1690 C.3   122  ASN122      0.1653
     69  C        -13.4880   -8.2190   -9.3900 C.2   122  ASN122      0.2266
     70  O        -13.8370   -8.0070   -8.2260 O.2   122  ASN122     -0.2867
     71  CB       -15.1960   -8.7940  -11.0640 C.3   122  ASN122      0.1155
     72  CG       -15.9200   -9.8420  -11.9000 C.2   122  ASN122      0.2627
     73  OD1      -15.3720  -10.8950  -12.2080 O.2   122  ASN122     -0.2716
     74  ND2      -17.1660   -9.5440  -12.2790 N.am  122  ASN122     -0.0877
     75  N        -10.3420    1.5190  -10.4010 N.3   126  HIS126     -0.1241
     76  CA       -11.3370    2.5790  -10.3940 C.3   126  HIS126      0.1621
     77  C        -11.1350    3.8640  -11.1910 C.2   126  HIS126      0.2264
     78  O        -12.0360    4.2940  -11.9170 O.2   126  HIS126     -0.2867
     79  CB       -11.7620    2.9230   -8.9670 C.3   126  HIS126      0.0745
     80  CG       -12.7000    4.0800   -8.9150 C.ar  126  HIS126      0.0817
     81  ND1      -12.2540    5.3760   -8.7940 N.ar  126  HIS126     -0.2268
     82  CD2      -14.0300    4.1580   -9.1640 C.ar  126  HIS126      0.1154
     83  CE1      -13.2660    6.2060   -8.9830 C.ar  126  HIS126      0.1986
     84  NE2      -14.3540    5.4920   -9.2070 N.ar  126  HIS126     -0.2212
     85  N        -11.7600    3.4940  -14.9480 N.3   129  LEU129     -0.1231
     86  CA       -13.0370    2.8570  -15.2590 C.3   129  LEU129      0.1693
     87  C        -12.8850    1.5280  -16.0150 C.2   129  LEU129      0.2593
     88  O        -13.6730    1.2080  -16.9210 O.2   129  LEU129     -0.2718
     89  CB       -13.8790    3.7820  -16.1310 C.3   129  LEU129      0.0284
     90  CG       -14.4120    4.9340  -15.2850 C.3   129  LEU129      0.0019
     91  CD1      -13.2420    5.6960  -14.6720 C.3   129  LEU129      0.0001
     92  CD2      -15.2290    5.8740  -16.1630 C.3   129  LEU129      0.0001
     93  N        -11.9190    0.7220  -15.5790 N.am  130  SER130     -0.1938
     94  CA       -11.6480   -0.5600  -16.1950 C.3   130  SER130      0.2055
     95  C        -11.5120   -1.6780  -15.1910 C.2   130  SER130      0.2643
     96  O        -10.7880   -1.5550  -14.2140 O.2   130  SER130     -0.2714
     97  CB       -10.3650   -0.4870  -17.0240 C.3   130  SER130      0.2130
     98  OG       -10.0360   -1.7580  -17.5680 O.3   130  SER130     -0.2179
     99  N        -12.2190   -2.7700  -15.4400 N.am  131  CYS131     -0.1967
    100  CA       -12.1210   -3.9360  -14.5940 C.3   131  CYS131      0.1712
    101  C        -10.7970   -4.5770  -14.8910 C.2   131  CYS131      0.2296
    102  O        -10.2220   -4.3420  -15.9510 O.2   131  CYS131     -0.2864
    103  CB       -13.2650   -4.8970  -14.9010 C.3   131  CYS131      0.0983
    104  SG       -13.4180   -6.3260  -13.8010 S.3   131  CYS131     -0.0798
    105  N        -13.4750   -9.2670  -15.6390 N.3   134  PHE134     -0.1241
    106  CA       -14.9170   -9.0960  -15.5010 C.3   134  PHE134      0.1605
    107  C        -15.6340  -10.3280  -16.0000 C.2   134  PHE134      0.2264
    108  O        -15.7840  -10.5290  -17.2080 O.2   134  PHE134     -0.2867
    109  CB       -15.3910   -7.8410  -16.2520 C.3   134  PHE134      0.0534
    110  CG       -16.8840   -7.6210  -16.2000 C.ar  134  PHE134     -0.0203
    111  CD1      -17.5060   -7.1780  -15.0240 C.ar  134  PHE134     -0.0042
    112  CD2      -17.6770   -7.8570  -17.3270 C.ar  134  PHE134     -0.0042
    113  CE1      -18.9070   -6.9710  -14.9690 C.ar  134  PHE134     -0.0003
    114  CE2      -19.0850   -7.6510  -17.2880 C.ar  134  PHE134     -0.0003
    115  CZ       -19.6960   -7.2080  -16.1090 C.ar  134  PHE134     -0.0000
@<TRIPOS>BOND
     1    98    97    1
     2   112   114   ar
     3   112   110   ar
     4   114   115   ar
     5   108   107    2
     6    97    94    1
     7    88    87    2
     8    26    28   ar
     9    26    25   ar
    10    28    30   ar
    11   109   110    1
    12   109   106    1
    13   110   111   ar
    14    94    93    1
    15    94    95    1
    16    92    90    1
    17    89    90    1
    18    89    86    1
    19    54    53    1
    20   115   113   ar
    21    87    93   am
    22    87    86    1
    23   107   106    1
    24    53    55    1
    25    53    52    1
    26   102   101    2
    27    24    25    1
    28    24    21    1
    29   105   106    1
    30    25    27   ar
    31    20    21    1
    32    30    31    1
    33    30    29   ar
    34    99    95   am
    35    99   100    1
    36    21    22    1
    37    49    48    1
    38    49    52    1
    39    49    50    1
    40    90    91    1
    41    86    85    1
    42    95    96    2
    43   111   113   ar
    44   103   100    1
    45   103   104    1
    46    51    50    2
    47   101   100    1
    48    27    29   ar
    49    64    66   ar
    50    64    62   ar
    51    22    23    2
    52    66    65   ar
    53    62    61   ar
    54    16    15    2
    55    18    17    1
    56    18    19    1
    57    43    42    2
    58    65    63   ar
    59    61    63   ar
    60    61    60    1
    61    15    14    1
    62    17    14    1
    63    74    72   am
    64    73    72    2
    65    37    39    1
    66    37    36    1
    67    19    13    1
    68    57    56    1
    69    57    60    1
    70    57    58    1
    71    78    77    2
    72    72    71    1
    73    46    45    1
    74    46    47    1
    75    42    41    1
    76    14    13    1
    77    12    11    1
    78     9    11   ar
    79     9     7   ar
    80    45    44    1
    81    32    33    1
    82    77    76    1
    83    71    68    1
    84    33    36    1
    85    33    34    1
    86    58    59    2
    87    11    10   ar
    88    36    38    1
    89    44    41    1
    90     7     6   ar
    91    41    40    1
    92    75    76    1
    93    76    79    1
    94    68    69    1
    95    68    67    1
    96    10     8   ar
    97    34    35    2
    98     6     8   ar
    99     6     5    1
   100     4     3    2
   101    69    70    2
   102    84    82   ar
   103    84    83   ar
   104    82    80   ar
   105    83    81   ar
   106    79    80    1
   107    80    81   ar
   108     3     2    1
   109     5     2    1
   110     2     1    1
