@<TRIPOS>MOLECULE
tmp/1oh4A00.pdb
 146 143 0 0 0
SMALL
GASTEIGER

@<TRIPOS>ATOM
      1  N          0.0100   20.9580    4.7350 N.3    23  SER23      -0.1202
      2  CA         0.2500   21.6220    3.4630 C.3    23  SER23       0.2020
      3  C          1.0390   20.7750    2.4720 C.2    23  SER23       0.2619
      4  O          1.4060   21.2720    1.4040 O.2    23  SER23      -0.2717
      5  CB         0.7610   23.0170    3.6060 C.3    23  SER23       0.2103
      6  OG         2.0800   22.9670    3.9780 O.3    23  SER23      -0.2182
      7  N          1.2970   19.5140    2.8260 N.am   24  GLY24      -0.1942
      8  CA         1.9130   18.5780    1.9030 C.3    24  GLY24       0.2014
      9  C          3.1980   17.9770    2.4190 C.2    24  GLY24       0.2640
     10  O          3.6470   18.2360    3.5480 O.2    24  GLY24      -0.2714
     11  N          3.7780   17.1460    1.5360 N.am   25  THR25      -0.1936
     12  CA         4.9520   16.3800    1.8580 C.3    25  THR25       0.2028
     13  C          5.9080   16.3350    0.6820 C.2    25  THR25       0.2642
     14  O          5.5760   16.7290   -0.4190 O.2    25  THR25      -0.2714
     15  CB         4.5990   14.9510    2.1880 C.3    25  THR25       0.1808
     16  OG1        4.1040   14.3200    0.9890 O.3    25  THR25      -0.2208
     17  CG2        3.5340   14.8320    3.2360 C.3    25  THR25       0.0379
     18  N          7.1230   15.8750    0.9240 N.am   26  TRP26      -0.1973
     19  CA         8.0530   15.5950   -0.1560 C.3    26  TRP26       0.1640
     20  C          8.9010   14.4310    0.2980 C.2    26  TRP26       0.2290
     21  O          9.6740   14.5310    1.2360 O.2    26  TRP26      -0.2864
     22  CB         8.9170   16.8190   -0.4910 C.3    26  TRP26       0.0576
     23  CG         9.6880   16.5860   -1.7070 C.ar   26  TRP26       0.0006
     24  CD1       11.0100   16.2310   -1.8120 C.ar   26  TRP26       0.0946
     25  CD2        9.1800   16.6450   -3.0380 C.ar   26  TRP26       0.0152
     26  NE1       11.3340   16.0650   -3.1400 N.ar   26  TRP26      -0.2442
     27  CE2       10.2240   16.3000   -3.9070 C.ar   26  TRP26       0.0810
     28  CE3        7.9210   16.9500   -3.5830 C.ar   26  TRP26       0.0012
     29  CZ2       10.0470   16.2630   -5.3150 C.ar   26  TRP26       0.0191
     30  CZ3        7.7440   16.8840   -4.9540 C.ar   26  TRP26       0.0001
     31  CH2        8.7970   16.5290   -5.8000 C.ar   26  TRP26       0.0015
     32  N         17.9550   12.5690    1.5550 N.3    57  ASP57      -0.1225
     33  CA        18.3650   13.6780    2.4070 C.3    57  ASP57       0.1805
     34  C         17.3240   14.7600    2.6150 C.2    57  ASP57       0.2597
     35  O         17.5770   15.7010    3.3720 O.2    57  ASP57      -0.2718
     36  CB        19.7200   14.2620    1.9920 C.3    57  ASP57       0.1424
     37  CG        19.7290   14.9880    0.7200 C.2    57  ASP57       0.3668
     38  OD1       18.7510   15.5780    0.2770 O.co2  57  ASP57      -0.2456
     39  OD2       20.8090   14.9680    0.0420 O.co2  57  ASP57      -0.2456
     40  N         16.1570   14.6350    1.9950 N.am   58  TRP58      -0.1976
     41  CA        15.1040   15.6460    2.1380 C.3    58  TRP58       0.1640
     42  C         13.7520   14.9560    2.1780 C.2    58  TRP58       0.2290
     43  O         13.1190   14.7410    1.1310 O.2    58  TRP58      -0.2864
     44  CB        15.1690   16.6770    0.9790 C.3    58  TRP58       0.0576
     45  CG        14.3360   17.8650    1.2730 C.ar   58  TRP58       0.0006
     46  CD1       12.9840   17.9720    1.1320 C.ar   58  TRP58       0.0946
     47  CD2       14.7670   19.0720    1.9030 C.ar   58  TRP58       0.0152
     48  NE1       12.5550   19.1850    1.5990 N.ar   58  TRP58      -0.2442
     49  CE2       13.6250   19.8800    2.0890 C.ar   58  TRP58       0.0810
     50  CE3       15.9960   19.5500    2.3480 C.ar   58  TRP58       0.0012
     51  CZ2       13.6830   21.1370    2.6970 C.ar   58  TRP58       0.0191
     52  CZ3       16.0500   20.7830    2.9500 C.ar   58  TRP58       0.0001
     53  CH2       14.9040   21.5610    3.1120 C.ar   58  TRP58       0.0015
     54  N         10.2750   15.4260    3.8490 N.3    60  GLU60      -0.1245
     55  CA         9.6040   16.5980    4.4100 C.3    60  GLU60       0.1567
     56  C          8.1240   16.3620    4.6720 C.2    60  GLU60       0.2260
     57  O          7.4190   15.8330    3.8130 O.2    60  GLU60      -0.2867
     58  CB         9.7450   17.7820    3.4720 C.3    60  GLU60       0.0388
     59  CG         8.9900   19.0350    3.8520 C.3    60  GLU60       0.1160
     60  CD         9.1860   20.2030    2.9090 C.2    60  GLU60       0.3649
     61  OE1        9.8340   20.0660    1.8580 O.co2  60  GLU60      -0.2457
     62  OE2        8.6310   21.2750    3.2290 O.co2  60  GLU60      -0.2457
     63  N          4.9170   19.0570    6.1240 N.3    62  ARG62      -0.1245
     64  CA         4.6970   20.4730    6.3540 C.3    62  ARG62       0.1563
     65  C          3.3260   20.7500    6.9310 C.2    62  ARG62       0.2260
     66  O          2.3340   20.1670    6.5070 O.2    62  ARG62      -0.2867
     67  CB         4.8040   21.1470    5.0230 C.3    62  ARG62       0.0307
     68  CG         5.2700   22.4770    4.9490 C.3    62  ARG62       0.0489
     69  CD         5.5760   22.8870    3.4630 C.3    62  ARG62       0.2205
     70  NE         4.6920   22.2670    2.4580 N.pl3  62  ARG62      -0.0865
     71  CZ         5.0860   21.5650    1.4120 C.cat  62  ARG62       0.5346
     72  NH1        6.3560   21.2920    1.1580 N.pl3  62  ARG62       0.1354
     73  NH2        4.1680   21.1340    0.5670 N.pl3  62  ARG62       0.1354
     74  N         19.6040   13.1850   10.5430 N.3    91  ARG91      -0.1245
     75  CA        19.6420   14.6150   10.7410 C.3    91  ARG91       0.1563
     76  C         18.2510   15.2010   10.4830 C.2    91  ARG91       0.2260
     77  O         17.4860   14.6980    9.6750 O.2    91  ARG91      -0.2867
     78  CB        20.6220   15.1800    9.6900 C.3    91  ARG91       0.0307
     79  CG        20.9920   16.5830    9.7360 C.3    91  ARG91       0.0489
     80  CD        22.3130   16.8410    9.0180 C.3    91  ARG91       0.2205
     81  NE        22.0870   16.8690    7.5850 N.pl3  91  ARG91      -0.0865
     82  CZ        22.5840   17.7680    6.7590 C.cat  91  ARG91       0.5346
     83  NH1       23.3710   18.7480    7.2350 N.pl3  91  ARG91       0.1354
     84  NH2       22.3310   17.7030    5.4620 N.pl3  91  ARG91       0.1354
     85  N         16.5030   18.8080    9.2350 N.3    93  ARG93      -0.1245
     86  CA        16.7900   20.0130    8.4660 C.3    93  ARG93       0.1563
     87  C         15.5480   20.9270    8.4340 C.2    93  ARG93       0.2260
     88  O         15.0290   21.3040    7.3720 O.2    93  ARG93      -0.2867
     89  CB        17.2000   19.6680    7.0450 C.3    93  ARG93       0.0307
     90  CG        18.4120   18.7390    6.9580 C.3    93  ARG93       0.0489
     91  CD        18.7220   18.2470    5.5840 C.3    93  ARG93       0.2205
     92  NE        19.1540   19.3130    4.6980 N.pl3  93  ARG93      -0.0865
     93  CZ        19.4650   19.1330    3.4160 C.cat  93  ARG93       0.5346
     94  NH1       19.3050   17.9340    2.8840 N.pl3  93  ARG93       0.1354
     95  NH2       19.8890   20.1300    2.6470 N.pl3  93  ARG93       0.1354
     96  N         12.8250   23.9780    8.5680 N.3    95  TYR95      -0.1241
     97  CA        12.8500   25.3210    7.9850 C.3    95  TYR95       0.1605
     98  C         11.4230   25.8620    7.9990 C.2    95  TYR95       0.2264
     99  O         10.5570   25.3430    8.7310 O.2    95  TYR95      -0.2867
    100  CB        13.5330   25.2900    6.5840 C.3    95  TYR95       0.0534
    101  CG        12.6340   24.7780    5.4880 C.ar   95  TYR95      -0.0201
    102  CD1       12.1480   23.4770    5.5270 C.ar   95  TYR95      -0.0009
    103  CD2       12.2210   25.5840    4.4290 C.ar   95  TYR95      -0.0009
    104  CE1       11.2700   23.0160    4.5730 C.ar   95  TYR95       0.0417
    105  CE2       11.3570   25.1070    3.4600 C.ar   95  TYR95       0.0417
    106  CZ        10.8660   23.8380    3.5600 C.ar   95  TYR95       0.1957
    107  OH         9.9370   23.4450    2.6340 O.3    95  TYR95      -0.2866
    108  N          5.6810   31.4590   -1.7870 N.3   102  TRP102     -0.1241
    109  CA         6.5150   30.3170   -1.4340 C.3   102  TRP102      0.1605
    110  C          7.9450   30.7550   -1.1840 C.2   102  TRP102      0.2264
    111  O          8.8920   30.2760   -1.7990 O.2   102  TRP102     -0.2867
    112  CB         6.4190   29.1740   -2.4630 C.3   102  TRP102      0.0550
    113  CG         6.6740   27.8620   -1.7780 C.ar  102  TRP102      0.0003
    114  CD1        7.8440   27.1880   -1.7030 C.ar  102  TRP102      0.0946
    115  CD2        5.7360   27.1270   -1.0000 C.ar  102  TRP102      0.0152
    116  NE1        7.6890   26.0610   -0.9210 N.ar  102  TRP102     -0.2442
    117  CE2        6.4010   26.0160   -0.4630 C.ar  102  TRP102      0.0810
    118  CE3        4.4090   27.3340   -0.6550 C.ar  102  TRP102      0.0012
    119  CZ2        5.7650   25.0820    0.3880 C.ar  102  TRP102      0.0191
    120  CZ3        3.7630   26.3990    0.2090 C.ar  102  TRP102      0.0001
    121  CH2        4.4540   25.2970    0.7080 C.ar  102  TRP102      0.0015
    122  N         10.9780   30.6120    0.7930 N.3   104  LYS104     -0.1245
    123  CA        11.6510   29.6660    1.6680 C.3   104  LYS104      0.1561
    124  C         12.5790   30.4130    2.6060 C.2   104  LYS104      0.2260
    125  O         13.4750   31.1350    2.1500 O.2   104  LYS104     -0.2867
    126  CB        12.4420   28.6630    0.8020 C.3   104  LYS104      0.0271
    127  CG        11.6000   27.8500   -0.1930 C.3   104  LYS104      0.0035
    128  CD        12.4440   27.0380   -1.1480 C.3   104  LYS104      0.0206
    129  CE        11.6310   26.3260   -2.1810 C.3   104  LYS104      0.1093
    130  NZ        12.4990   25.4370   -3.0070 N.3   104  LYS104     -0.1314
    131  N         16.6180   27.9520    5.1720 N.3   107  LEU107     -0.1231
    132  CA        17.0960   26.6840    4.6360 C.3   107  LEU107      0.1693
    133  C         18.4730   26.3460    5.1980 C.2   107  LEU107      0.2592
    134  O         19.4080   27.1380    5.1050 O.2   107  LEU107     -0.2718
    135  CB        17.1650   26.6680    3.1100 C.3   107  LEU107      0.0284
    136  CG        15.8300   26.5490    2.3900 C.3   107  LEU107      0.0019
    137  CD1       16.0130   26.8840    0.9000 C.3   107  LEU107      0.0001
    138  CD2       15.2100   25.2080    2.5590 C.3   107  LEU107      0.0001
    139  N         18.5840   25.1560    5.7830 N.am  108  ASP108     -0.1974
    140  CA        19.8220   24.6070    6.3160 C.3   108  ASP108      0.1709
    141  C         20.4820   25.4800    7.3840 C.2   108  ASP108      0.2293
    142  O         21.6790   25.3560    7.6250 O.2   108  ASP108     -0.2864
    143  CB        20.8180   24.2810    5.2000 C.3   108  ASP108      0.1436
    144  CG        20.4250   23.0820    4.3990 C.2   108  ASP108      0.3671
    145  OD1       19.7230   22.2020    4.9510 O.co2 108  ASP108     -0.2456
    146  OD2       20.7550   22.9800    3.2050 O.co2 108  ASP108     -0.2456
@<TRIPOS>BOND
     1    31    29   ar
     2    31    30   ar
     3    29    27   ar
     4    30    28   ar
     5    27    26   ar
     6    27    25   ar
     7    28    25   ar
     8    26    24   ar
     9    25    23   ar
    10   130   129    1
    11   112   113    1
    12   112   109    1
    13   129   128    1
    14    24    23   ar
    15   111   110    2
    16   108   109    1
    17   113   114   ar
    18   113   115   ar
    19    23    22    1
    20   114   116   ar
    21   109   110    1
    22   128   127    1
    23   115   118   ar
    24   115   117   ar
    25   116   117   ar
    26   118   120   ar
    27    22    19    1
    28   117   119   ar
    29    14    13    2
    30   127   126    1
    31    19    20    1
    32    19    18    1
    33    39    37   ar
    34   120   121   ar
    35    38    37   ar
    36    20    21    2
    37   119   121   ar
    38    73    71    1
    39    13    18   am
    40    13    12    1
    41    37    36    1
    42   122   123    1
    43   126   123    1
    44   137   136    1
    45    44    45    1
    46    44    41    1
    47    16    15    1
    48    43    42    2
    49    46    45   ar
    50    46    48   ar
    51    72    71    1
    52    45    47   ar
    53     4     3    2
    54    71    70    2
    55    11    12    1
    56    11     9   am
    57    32    33    1
    58    48    49   ar
    59   123   124    1
    60    12    15    1
    61    61    60   ar
    62    47    49   ar
    63    47    50   ar
    64     8     9    1
    65     8     7    1
    66    36    33    1
    67    40    41    1
    68    40    34   am
    69    49    51   ar
    70    41    42    1
    71   125   124    2
    72    15    17    1
    73    50    52   ar
    74   136   138    1
    75   136   135    1
    76    33    34    1
    77     9    10    2
    78    70    69    1
    79     3     7   am
    80     3     2    1
    81    34    35    2
    82   107   106    1
    83    95    93    1
    84    51    53   ar
    85    94    93    1
    86    60    62   ar
    87    60    59    1
    88    52    53   ar
    89   135   132    1
    90   146   144   ar
    91    93    92    2
    92   105   106   ar
    93   105   103   ar
    94     2     5    1
    95     2     1    1
    96    69    68    1
    97    58    59    1
    98    58    55    1
    99   106   104   ar
   100     5     6    1
   101    57    56    2
   102    54    55    1
   103   144   145   ar
   104   144   143    1
   105    55    56    1
   106   103   101   ar
   107   104   102   ar
   108   132   131    1
   109   132   133    1
   110    92    91    1
   111    68    67    1
   112    67    64    1
   113   134   133    2
   114   133   139   am
   115   143   140    1
   116    84    82    1
   117   101   102   ar
   118   101   100    1
   119    91    90    1
   120   139   140    1
   121    63    64    1
   122   140   141    1
   123    64    65    1
   124    66    65    2
   125   100    97    1
   126    82    83    1
   127    82    81    2
   128    90    89    1
   129    89    86    1
   130    88    87    2
   131   141   142    2
   132    81    80    1
   133    97    98    1
   134    97    96    1
   135    98    99    2
   136    87    86    1
   137    86    85    1
   138    80    79    1
   139    77    76    2
   140    78    79    1
   141    78    75    1
   142    76    75    1
   143    74    75    1
