@<TRIPOS>MOLECULE
tmp/1ohbA00.pdb
 135 127 0 0 0
SMALL
GASTEIGER

@<TRIPOS>ATOM
      1  N         22.7530   21.1410   42.9290 N.3     8  LYS8       -0.1245
      2  CA        23.5090   19.9750   42.4960 C.3     8  LYS8        0.1561
      3  C         22.6000   18.7620   42.4190 C.2     8  LYS8        0.2260
      4  O         21.8650   18.4700   43.3600 O.2     8  LYS8       -0.2867
      5  CB        24.6700   19.7160   43.4640 C.3     8  LYS8        0.0271
      6  CG        25.5980   18.5680   43.0690 C.3     8  LYS8        0.0035
      7  CD        25.0920   17.2200   43.5840 C.3     8  LYS8        0.0206
      8  CE        26.0950   16.1150   43.2790 C.3     8  LYS8        0.1093
      9  NZ        25.7710   14.8290   43.9690 N.3     8  LYS8       -0.1314
     10  N         22.1400   14.4950   41.2580 N.3    10  GLY10      -0.1210
     11  CA        22.8660   13.2430   41.1770 C.3    10  GLY10       0.1956
     12  C         21.9670   12.1000   41.6040 C.2    10  GLY10       0.2612
     13  O         20.7420   12.2350   41.5920 O.2    10  GLY10      -0.2717
     14  N         22.5710   10.9770   41.9800 N.am   11  GLY11      -0.1956
     15  CA        21.7940    9.8300   42.4180 C.3    11  GLY11       0.1869
     16  C         21.0150    9.1700   41.2980 C.2    11  GLY11       0.2309
     17  O         21.4480    9.1710   40.1440 O.2    11  GLY11      -0.2863
     18  N         35.7160    1.6570   45.8910 N.3    61  LYS61      -0.1245
     19  CA        35.9200    2.9370   46.5480 C.3    61  LYS61       0.1561
     20  C         37.0500    2.8960   47.5630 C.2    61  LYS61       0.2260
     21  O         37.3550    1.8520   48.1420 O.2    61  LYS61      -0.2867
     22  CB        34.6330    3.3970   47.2380 C.3    61  LYS61       0.0271
     23  CG        33.5120    3.7570   46.2750 C.3    61  LYS61       0.0035
     24  CD        32.2720    4.2350   47.0130 C.3    61  LYS61       0.0206
     25  CE        31.1620    4.6080   46.0390 C.3    61  LYS61       0.1093
     26  NZ        29.9200    5.0550   46.7370 N.3    61  LYS61      -0.1314
     27  N         29.7590   16.3720   44.5110 N.3   162  ASP162     -0.1239
     28  CA        29.5140   17.2700   45.6310 C.3   162  ASP162      0.1674
     29  C         30.7140   18.2020   45.8040 C.2   162  ASP162      0.2266
     30  O         30.5430   19.4030   46.0080 O.2   162  ASP162     -0.2867
     31  CB        29.2710   16.4830   46.9250 C.3   162  ASP162      0.1410
     32  CG        28.0350   15.6090   46.8520 C.2   162  ASP162      0.3668
     33  OD1       26.9880   16.0870   46.3660 O.co2 162  ASP162     -0.2456
     34  OD2       28.1050   14.4420   47.2890 O.co2 162  ASP162     -0.2456
     35  N         21.1340   18.1670   46.1550 N.3   179  LEU179     -0.1231
     36  CA        19.9880   17.2610   46.1230 C.3   179  LEU179      0.1693
     37  C         20.4270   15.8120   45.9980 C.2   179  LEU179      0.2593
     38  O         21.2110   15.4650   45.1130 O.2   179  LEU179     -0.2718
     39  CB        19.0600   17.5980   44.9570 C.3   179  LEU179      0.0284
     40  CG        18.3950   18.9790   44.9480 C.3   179  LEU179      0.0019
     41  CD1       17.3900   19.0290   43.7970 C.3   179  LEU179      0.0001
     42  CD2       17.6900   19.2370   46.2780 C.3   179  LEU179      0.0001
     43  N         19.9050   14.9640   46.8760 N.am  180  SER180     -0.1938
     44  CA        20.2520   13.5530   46.8580 C.3   180  SER180      0.2055
     45  C         19.0090   12.6800   46.9280 C.2   180  SER180      0.2643
     46  O         17.8880   13.1820   47.0380 O.2   180  SER180     -0.2714
     47  CB        21.1850   13.2210   48.0270 C.3   180  SER180      0.2130
     48  OG        20.5590   13.4750   49.2720 O.3   180  SER180     -0.2179
     49  N         19.2200   11.3700   46.8640 N.am  181  ASP181     -0.1957
     50  CA        18.1260   10.4130   46.9180 C.3   181  ASP181      0.1840
     51  C         17.4090   10.4410   48.2730 C.2   181  ASP181      0.2621
     52  O         16.1950   10.2660   48.3360 O.2   181  ASP181     -0.2715
     53  CB        18.6470    8.9960   46.6360 C.3   181  ASP181      0.1450
     54  CG        19.3950    8.8940   45.3150 C.2   181  ASP181      0.3671
     55  OD1       19.0400    9.6200   44.3650 O.co2 181  ASP181     -0.2456
     56  OD2       20.3320    8.0720   45.2180 O.co2 181  ASP181     -0.2456
     57  N         18.1610   10.6650   49.3480 N.am  182  VAL182     -0.1977
     58  CA        17.5900   10.7040   50.6980 C.3   182  VAL182      0.1596
     59  C         17.4330   12.1320   51.2260 C.2   182  VAL182      0.2287
     60  O         18.0830   13.0540   50.7430 O.2   182  VAL182     -0.2864
     61  CB        18.4600    9.8950   51.6870 C.3   182  VAL182      0.0276
     62  CG1       18.4910    8.4350   51.2700 C.3   182  VAL182      0.0022
     63  CG2       19.8710   10.4590   51.7230 C.3   182  VAL182      0.0022
     64  N         18.5750   14.4880   53.1400 N.3   184  GLY184     -0.1210
     65  CA        19.7040   14.9470   53.9280 C.3   184  GLY184      0.1956
     66  C         20.5600   13.8430   54.5180 C.2   184  GLY184      0.2612
     67  O         20.6780   12.7590   53.9480 O.2   184  GLY184     -0.2717
     68  N         21.1800   14.1250   55.6580 N.am  185  ILE185     -0.1965
     69  CA        22.0300   13.1480   56.3290 C.3   185  ILE185      0.1727
     70  C         21.1900   12.4100   57.3670 C.2   185  ILE185      0.2616
     71  O         20.4790   13.0320   58.1530 O.2   185  ILE185     -0.2715
     72  CB        23.2250   13.8330   57.0280 C.3   185  ILE185      0.0290
     73  CG1       24.0480   14.6150   55.9990 C.3   185  ILE185      0.0022
     74  CG2       24.0930   12.7880   57.7250 C.3   185  ILE185      0.0023
     75  CD1       25.2340   15.3670   56.5930 C.3   185  ILE185      0.0001
     76  N         21.2750   11.0840   57.3580 N.am  186  LEU186     -0.1977
     77  CA        20.5060   10.2500   58.2770 C.3   186  LEU186      0.1596
     78  C         21.3070    9.7970   59.4920 C.2   186  LEU186      0.2287
     79  O         22.5140    9.5690   59.3970 O.2   186  LEU186     -0.2864
     80  CB        19.9760    9.0310   57.5270 C.3   186  LEU186      0.0297
     81  CG        19.3480    9.3400   56.1650 C.3   186  LEU186      0.0022
     82  CD1       18.8440    8.0540   55.5410 C.3   186  LEU186      0.0001
     83  CD2       18.2090   10.3460   56.3230 C.3   186  LEU186      0.0001
     84  N         28.3920    6.5610   61.8830 N.3   209  ILE209     -0.1231
     85  CA        27.0780    6.9190   61.3450 C.3   209  ILE209      0.1692
     86  C         27.2370    7.4790   59.9300 C.2   209  ILE209      0.2592
     87  O         26.5130    7.0900   59.0110 O.2   209  ILE209     -0.2718
     88  CB        26.3790    7.9810   62.2290 C.3   209  ILE209      0.0266
     89  CG1       26.2690    7.4760   63.6690 C.3   209  ILE209      0.0019
     90  CG2       24.9930    8.2910   61.6810 C.3   209  ILE209      0.0020
     91  CD1       25.4520    6.2140   63.8170 C.3   209  ILE209      0.0001
     92  N         28.1760    8.4070   59.7650 N.am  210  ILE210     -0.1966
     93  CA        28.4500    8.9920   58.4560 C.3   210  ILE210      0.1727
     94  C         29.6410    8.2310   57.8780 C.2   210  ILE210      0.2617
     95  O         30.7240    8.2100   58.4710 O.2   210  ILE210     -0.2715
     96  CB        28.8180   10.4910   58.5570 C.3   210  ILE210      0.0290
     97  CG1       27.6320   11.2880   59.1030 C.3   210  ILE210      0.0022
     98  CG2       29.2350   11.0210   57.1860 C.3   210  ILE210      0.0023
     99  CD1       27.9310   12.7560   59.3280 C.3   210  ILE210      0.0001
    100  N         29.4360    7.6080   56.7230 N.am  211  THR211     -0.1937
    101  CA        30.4840    6.8300   56.0780 C.3   211  THR211      0.2028
    102  C         30.5070    7.0320   54.5660 C.2   211  THR211      0.2642
    103  O         29.6990    7.7770   54.0130 O.2   211  THR211     -0.2714
    104  CB        30.2890    5.3260   56.3460 C.3   211  THR211      0.1808
    105  OG1       29.0560    4.8930   55.7560 O.3   211  THR211     -0.2208
    106  CG2       30.2420    5.0510   57.8390 C.3   211  THR211      0.0379
    107  N         31.4450    6.3560   53.9070 N.am  212  ASP212     -0.1957
    108  CA        31.5770    6.4210   52.4550 C.3   212  ASP212      0.1840
    109  C         31.6100    7.8500   51.9130 C.2   212  ASP212      0.2623
    110  O         32.2520    8.7310   52.4890 O.2   212  ASP212     -0.2715
    111  CB        30.4290    5.6340   51.8080 C.3   212  ASP212      0.1450
    112  CG        30.4200    5.7430   50.2950 C.2   212  ASP212      0.3671
    113  OD1       31.4580    5.4430   49.6640 O.co2 212  ASP212     -0.2456
    114  OD2       29.3720    6.1350   49.7380 O.co2 212  ASP212     -0.2456
    115  N         30.9180    8.0620   50.7980 N.am  213  GLY213     -0.1940
    116  CA        30.8680    9.3650   50.1670 C.3   213  GLY213      0.2014
    117  C         30.1520   10.4030   51.0030 C.2   213  GLY213      0.2638
    118  O         30.2990   11.6000   50.7620 O.2   213  GLY213     -0.2714
    119  N         29.3700    9.9590   51.9810 N.am  214  MET214     -0.1976
    120  CA        28.6620   10.9030   52.8330 C.3   214  MET214      0.1605
    121  C         29.6950   11.6990   53.6250 C.2   214  MET214      0.2287
    122  O         29.4530   12.8420   54.0040 O.2   214  MET214     -0.2864
    123  CB        27.7060   10.1800   53.7790 C.3   214  MET214      0.0413
    124  CG        26.7970   11.1260   54.5490 C.3   214  MET214      0.0598
    125  SD        25.9040   12.2800   53.4660 S.3   214  MET214     -0.1393
    126  CE        26.8580   13.7640   53.7050 C.3   214  MET214      0.0692
    127  N         30.6870   14.1560   51.1220 N.3   217  LYS217     -0.1245
    128  CA        29.5940   15.1090   50.9430 C.3   217  LYS217      0.1561
    129  C         29.4780   16.1060   52.0990 C.2   217  LYS217      0.2260
    130  O         29.3650   17.3110   51.8730 O.2   217  LYS217     -0.2867
    131  CB        28.2640   14.3740   50.7860 C.3   217  LYS217      0.0271
    132  CG        27.0850   15.3010   50.4860 C.3   217  LYS217      0.0035
    133  CD        25.7470   14.5860   50.6110 C.3   217  LYS217      0.0206
    134  CE        25.6360   13.4020   49.6640 C.3   217  LYS217      0.1093
    135  NZ        25.7510   13.8160   48.2400 N.3   217  LYS217     -0.1314
@<TRIPOS>BOND
     1    17    16    2
     2    11    10    1
     3    11    12    1
     4    16    15    1
     5    13    12    2
     6    12    14   am
     7    14    15    1
     8     3     2    1
     9     3     4    2
    10     2     1    1
    11     2     5    1
    12     6     5    1
    13     6     7    1
    14     8     7    1
    15     8     9    1
    16    41    40    1
    17    55    54   ar
    18    27    28    1
    19    40    39    1
    20    40    42    1
    21    39    36    1
    22    38    37    2
    23    56    54   ar
    24    54    53    1
    25    28    29    1
    26    28    31    1
    27    29    30    2
    28    18    19    1
    29    37    36    1
    30    37    43   am
    31    25    26    1
    32    25    24    1
    33    36    35    1
    34    23    24    1
    35    23    22    1
    36    33    32   ar
    37    19    22    1
    38    19    20    1
    39    53    50    1
    40    32    31    1
    41    32    34   ar
    42    44    43    1
    43    44    45    1
    44    44    47    1
    45    49    50    1
    46    49    45   am
    47    50    51    1
    48    45    46    2
    49    20    21    2
    50    47    48    1
    51   135   134    1
    52    51    52    2
    53    51    57   am
    54    57    58    1
    55   134   133    1
    56   113   112   ar
    57   114   112   ar
    58   116   115    1
    59   116   117    1
    60   112   111    1
    61   132   133    1
    62   132   131    1
    63    58    59    1
    64    58    61    1
    65    60    59    2
    66   118   117    2
    67   131   128    1
    68   115   109   am
    69   128   127    1
    70   128   129    1
    71   117   119   am
    72    62    61    1
    73    61    63    1
    74   111   108    1
    75   130   129    2
    76   109   108    1
    77   109   110    2
    78   119   120    1
    79   108   107    1
    80   120   121    1
    81   120   123    1
    82    64    65    1
    83   125   126    1
    84   125   124    1
    85   121   122    2
    86   123   124    1
    87   107   102   am
    88    65    66    1
    89    67    66    2
    90   103   102    2
    91    66    68   am
    92   102   101    1
    93    82    81    1
    94    68    69    1
    95   105   104    1
    96    73    75    1
    97    73    72    1
    98   101   104    1
    99   101   100    1
   100    81    83    1
   101    81    80    1
   102    69    72    1
   103    69    70    1
   104   104   106    1
   105   100    94   am
   106    72    74    1
   107    98    96    1
   108    76    70   am
   109    76    77    1
   110    70    71    2
   111    80    77    1
   112    94    93    1
   113    94    95    2
   114    77    78    1
   115    93    96    1
   116    93    92    1
   117    96    97    1
   118    87    86    2
   119    97    99    1
   120    79    78    2
   121    92    86   am
   122    86    85    1
   123    85    84    1
   124    85    88    1
   125    90    88    1
   126    88    89    1
   127    89    91    1
