@<TRIPOS>MOLECULE
tmp/1oheA00.pdb
 120 118 0 0 0
SMALL
GASTEIGER

@<TRIPOS>ATOM
      1  N         27.4330   -6.9780   22.1870 N.3    44  PHE44      -0.1241
      2  CA        27.6010   -7.2890   20.7720 C.3    44  PHE44       0.1605
      3  C         28.6870   -8.3610   20.6940 C.2    44  PHE44       0.2264
      4  O         28.4790   -9.4110   20.0820 O.2    44  PHE44      -0.2867
      5  CB        27.9770   -6.0370   19.9720 C.3    44  PHE44       0.0534
      6  CG        26.8430   -5.0610   19.8180 C.ar   44  PHE44      -0.0203
      7  CD1       26.7640   -3.9210   20.6400 C.ar   44  PHE44      -0.0042
      8  CD2       25.8280   -5.2900   18.8660 C.ar   44  PHE44      -0.0042
      9  CE1       25.6800   -3.0100   20.5230 C.ar   44  PHE44      -0.0003
     10  CE2       24.7330   -4.3880   18.7300 C.ar   44  PHE44      -0.0003
     11  CZ        24.6590   -3.2450   19.5630 C.ar   44  PHE44      -0.0000
     12  N         33.1630   -2.6710   20.9040 N.3   127  ALA127     -0.1231
     13  CA        32.4740   -3.8000   20.2780 C.3   127  ALA127      0.1694
     14  C         33.2860   -4.6330   19.2690 C.2   127  ALA127      0.2592
     15  O         32.7670   -5.6020   18.7200 O.2   127  ALA127     -0.2718
     16  CB        31.1640   -3.3160   19.6450 C.3   127  ALA127      0.0304
     17  N         34.5670   -4.3010   19.0920 N.am  128  ALA128     -0.1966
     18  CA        35.4580   -4.9890   18.1410 C.3   128  ALA128      0.1728
     19  C         35.8500   -6.4230   18.4610 C.2   128  ALA128      0.2616
     20  O         35.7220   -6.8840   19.5960 O.2   128  ALA128     -0.2715
     21  CB        36.7170   -4.1590   17.9030 C.3   128  ALA128      0.0334
     22  N         36.3450   -7.1110   17.4330 N.am  129  TYR129     -0.1974
     23  CA        36.7980   -8.4930   17.5380 C.3   129  TYR129      0.1639
     24  C         38.2460   -8.5320   18.0180 C.2   129  TYR129      0.2290
     25  O         39.0860   -7.7600   17.5470 O.2   129  TYR129     -0.2864
     26  CB        36.6840   -9.2040   16.1800 C.3   129  TYR129      0.0560
     27  CG        35.2930   -9.2060   15.5780 C.ar  129  TYR129     -0.0198
     28  CD1       34.9770   -8.3610   14.4910 C.ar  129  TYR129     -0.0009
     29  CD2       34.2800  -10.0510   16.0860 C.ar  129  TYR129     -0.0009
     30  CE1       33.6680   -8.3530   13.9140 C.ar  129  TYR129      0.0417
     31  CE2       32.9680  -10.0550   15.5210 C.ar  129  TYR129      0.0417
     32  CZ        32.6740   -9.2010   14.4360 C.ar  129  TYR129      0.1957
     33  OH        31.4090   -9.1900   13.8870 O.3   129  TYR129     -0.2866
     34  N         33.3870   -0.1800    5.6310 N.3   246  ASP246     -0.1225
     35  CA        32.9890   -0.7560    6.9130 C.3   246  ASP246      0.1805
     36  C         34.2110   -1.0100    7.7900 C.2   246  ASP246      0.2598
     37  O         35.1670   -1.6680    7.3720 O.2   246  ASP246     -0.2718
     38  CB        32.1900   -2.0490    6.6860 C.3   246  ASP246      0.1424
     39  CG        31.6270   -2.6400    7.9750 C.2   246  ASP246      0.3668
     40  OD1       31.2220   -1.8760    8.8800 O.co2 246  ASP246     -0.2456
     41  OD2       31.5970   -3.8840    8.0810 O.co2 246  ASP246     -0.2456
     42  N         34.1950   -0.3890    8.9650 N.am  247  GLY247     -0.1957
     43  CA        35.2830   -0.5320    9.9090 C.3   247  GLY247      0.1869
     44  C         36.4610    0.3880    9.7100 C.2   247  GLY247      0.2309
     45  O         37.4410    0.3030   10.4560 O.2   247  GLY247     -0.2863
     46  N         24.5410    4.0660    9.1280 N.3   273  SER273     -0.1202
     47  CA        25.5450    3.2260    8.4950 C.3   273  SER273      0.2020
     48  C         24.8190    1.8850    8.4230 C.2   273  SER273      0.2619
     49  O         23.6010    1.8890    8.2820 O.2   273  SER273     -0.2717
     50  CB        26.8580    3.1750    9.2950 C.3   273  SER273      0.2103
     51  OG        26.6460    3.0090   10.6810 O.3   273  SER273     -0.2182
     52  N         25.5230    0.7540    8.4750 N.am  274  LYS274     -0.1965
     53  CA        24.8600   -0.5550    8.4150 C.3   274  LYS274      0.1728
     54  C         24.1280   -0.7910    9.7340 C.2   274  LYS274      0.2616
     55  O         22.9050   -0.9350    9.7500 O.2   274  LYS274     -0.2715
     56  CB        25.8860   -1.6700    8.1210 C.3   274  LYS274      0.0311
     57  CG        25.3140   -3.0800    7.9460 C.3   274  LYS274      0.0038
     58  CD        26.4220   -4.0890    7.6660 C.3   274  LYS274      0.0206
     59  CE        25.8600   -5.4890    7.4450 C.3   274  LYS274      0.1093
     60  NZ        26.9350   -6.5060    7.2090 N.3   274  LYS274     -0.1314
     61  N         24.8800   -0.7110   10.8320 N.am  275  ALA275     -0.1963
     62  CA        24.3490   -0.9040   12.1750 C.3   275  ALA275      0.1728
     63  C         24.0500    0.4210   12.8790 C.2   275  ALA275      0.2617
     64  O         23.3030    0.4510   13.8550 O.2   275  ALA275     -0.2715
     65  CB        25.3250   -1.7340   12.9990 C.3   275  ALA275      0.0334
     66  N         24.6330    1.5090   12.3760 N.am  276  GLY276     -0.1940
     67  CA        24.4410    2.8260   12.9710 C.3   276  GLY276      0.2014
     68  C         25.2730    3.0070   14.2270 C.2   276  GLY276      0.2639
     69  O         24.9780    3.8540   15.0730 O.2   276  GLY276     -0.2714
     70  N         26.3550    2.2350   14.3040 N.am  277  LEU277     -0.1963
     71  CA        27.2440    2.2320   15.4550 C.3   277  LEU277      0.1728
     72  C         28.6510    2.7460   15.1850 C.2   277  LEU277      0.2617
     73  O         29.0480    3.7880   15.7130 O.2   277  LEU277     -0.2715
     74  CB        27.3170    0.8130   16.0390 C.3   277  LEU277      0.0311
     75  CG        26.0140    0.1210   16.4630 C.3   277  LEU277      0.0022
     76  CD1       26.2880   -1.3160   16.8420 C.3   277  LEU277      0.0001
     77  CD2       25.3500    0.8720   17.5920 C.3   277  LEU277      0.0001
     78  N         29.3940    2.0060   14.3640 N.am  278  GLY278     -0.1940
     79  CA        30.7680    2.3520   14.0420 C.3   278  GLY278      0.2014
     80  C         31.0130    3.6760   13.3500 C.2   278  GLY278      0.2638
     81  O         31.4470    4.6390   13.9830 O.2   278  GLY278     -0.2714
     82  N         30.7210    3.7040   12.0530 N.am  279  ARG279     -0.1977
     83  CA        30.8970    4.8710   11.1910 C.3   279  ARG279      0.1597
     84  C         30.0670    6.0790   11.6150 C.2   279  ARG279      0.2287
     85  O         30.5520    7.2120   11.6080 O.2   279  ARG279     -0.2864
     86  CB        30.5700    4.4730    9.7520 C.3   279  ARG279      0.0334
     87  CG        31.5700    3.4860    9.1680 C.3   279  ARG279      0.0492
     88  CD        31.1270    2.9660    7.8340 C.3   279  ARG279      0.2205
     89  NE        30.2050    1.8410    7.9700 N.pl3 279  ARG279     -0.0865
     90  CZ        29.7440    1.1230    6.9500 C.cat 279  ARG279      0.5346
     91  NH1       30.1130    1.4150    5.7050 N.pl3 279  ARG279      0.1354
     92  NH2       28.9600    0.0760    7.1780 N.pl3 279  ARG279      0.1354
     93  N         33.8160    1.8770   16.9090 N.3   312  ILE312     -0.1231
     94  CA        34.4530    0.5570   16.9510 C.3   312  ILE312      0.1692
     95  C         35.8900    0.4850   16.4160 C.2   312  ILE312      0.2593
     96  O         36.2100    1.0810   15.3860 O.2   312  ILE312     -0.2718
     97  CB        33.5670   -0.4830   16.1620 C.3   312  ILE312      0.0266
     98  CG1       32.1150   -0.4530   16.6510 C.3   312  ILE312      0.0019
     99  CG2       34.0550   -1.8950   16.3810 C.3   312  ILE312      0.0020
    100  CD1       31.1200   -1.0600   15.6940 C.3   312  ILE312      0.0001
    101  N         36.7270   -0.2860   17.1180 N.am  313  GLY313     -0.1943
    102  CA        38.1190   -0.5200   16.7410 C.3   313  GLY313      0.1998
    103  C         38.9910    0.6710   16.3750 C.2   313  GLY313      0.2481
    104  O         39.1520    1.5670   17.2050 O.2   313  GLY313     -0.2729
    105  N         39.5540    0.7190   15.1390 N.am  314  PRO314     -0.2715
    106  CA        40.4200    1.7900   14.6150 C.3   314  PRO314      0.1536
    107  C         39.8070    3.1910   14.7180 C.2   314  PRO314      0.2598
    108  O         40.5200    4.1950   14.7200 O.2   314  PRO314     -0.2715
    109  CB        40.5890    1.3970   13.1490 C.3   314  PRO314      0.0310
    110  CG        40.5490   -0.0660   13.1860 C.3   314  PRO314      0.0237
    111  CD        39.4200   -0.3530   14.1330 C.3   314  PRO314      0.0939
    112  N         38.4790    3.2340   14.7870 N.am  315  GLN315     -0.1978
    113  CA        37.7210    4.4760   14.9020 C.3   315  GLN315      0.1601
    114  C         37.9230    5.1840   16.2380 C.2   315  GLN315      0.2287
    115  O         37.8250    6.4100   16.3030 O.2   315  GLN315     -0.2864
    116  CB        36.2470    4.2100   14.6320 C.3   315  GLN315      0.0394
    117  CG        35.9980    3.7440   13.1980 C.3   315  GLN315      0.0908
    118  CD        34.6500    3.0840   13.0060 C.2   315  GLN315      0.2608
    119  OE1       33.9420    2.8050   13.9700 O.2   315  GLN315     -0.2717
    120  NE2       34.2930    2.8150   11.7500 N.am  315  GLN315     -0.0878
@<TRIPOS>BOND
     1    34    35    1
     2    91    90    1
     3    38    35    1
     4    38    39    1
     5    35    36    1
     6    90    92    1
     7    90    89    2
     8    60    59    1
     9    37    36    2
    10    59    58    1
    11    58    57    1
    12    36    42   am
    13    88    89    1
    14    88    87    1
    15    57    56    1
    16    39    41   ar
    17    39    40   ar
    18    56    53    1
    19    49    48    2
    20    53    52    1
    21    53    54    1
    22    48    52   am
    23    48    47    1
    24    47    46    1
    25    47    50    1
    26    42    43    1
    27    87    86    1
    28    50    51    1
    29    44    43    1
    30    44    45    2
    31    54    55    2
    32    54    61   am
    33    86    83    1
    34    61    62    1
    35    83    84    1
    36    83    82    1
    37    85    84    2
    38   120   118   am
    39    82    80   am
    40    62    63    1
    41    62    65    1
    42    66    63   am
    43    66    67    1
    44    63    64    2
    45    67    68    1
    46   118   117    1
    47   118   119    2
    48   109   110    1
    49   109   106    1
    50   110   111    1
    51   117   116    1
    52    80    81    2
    53    80    79    1
    54    33    32    1
    55    30    32   ar
    56    30    28   ar
    57    79    78    1
    58   111   105    1
    59    68    70   am
    60    68    69    2
    61    70    71    1
    62    78    72   am
    63    32    31   ar
    64    28    27   ar
    65   106   107    1
    66   106   105    1
    67   116   113    1
    68   107   108    2
    69   107   112   am
    70   112   113    1
    71   113   114    1
    72   105   103   am
    73    72    71    1
    74    72    73    2
    75    96    95    2
    76    71    74    1
    77    31    29   ar
    78    27    29   ar
    79    27    26    1
    80   100    98    1
    81    74    75    1
    82    97    99    1
    83    97    98    1
    84    97    94    1
    85    26    23    1
    86   114   115    2
    87   103   102    1
    88   103   104    2
    89    95    94    1
    90    95   101   am
    91    75    76    1
    92    75    77    1
    93   102   101    1
    94    93    94    1
    95    22    23    1
    96    22    19   am
    97    23    24    1
    98    25    24    2
    99    21    18    1
   100    18    19    1
   101    18    17    1
   102    19    20    2
   103    15    14    2
   104    10     8   ar
   105    10    11   ar
   106     8     6   ar
   107    17    14   am
   108    14    13    1
   109    11     9   ar
   110    16    13    1
   111     6     5    1
   112     6     7   ar
   113     5     2    1
   114     4     3    2
   115    13    12    1
   116     9     7   ar
   117     3     2    1
   118     2     1    1
