@<TRIPOS>MOLECULE
tmp/1ohkA01.pdb
 184 178 0 0 0
SMALL
GASTEIGER

@<TRIPOS>ATOM
      1  N          4.7270    0.4360   32.5900 N.3     7  ILE7       -0.1231
      2  CA         4.6000   -1.0420   32.8050 C.3     7  ILE7        0.1692
      3  C          3.0820   -1.2830   32.8560 C.2     7  ILE7        0.2592
      4  O          2.3950   -0.6030   33.6890 O.2     7  ILE7       -0.2718
      5  CB         5.5280   -1.6130   33.9040 C.3     7  ILE7        0.0266
      6  CG1        5.6020   -3.1350   33.7430 C.3     7  ILE7        0.0019
      7  CG2        5.2440   -1.2810   35.3890 C.3     7  ILE7        0.0020
      8  CD1        5.9970   -3.8760   35.0280 C.3     7  ILE7        0.0001
      9  N          2.6310   -2.0950   31.9060 N.am    8  VAL8       -0.1966
     10  CA         1.2350   -2.4530   31.7260 C.3     8  VAL8        0.1727
     11  C          1.0950   -3.9420   31.4290 C.2     8  VAL8        0.2616
     12  O          2.0990   -4.3090   30.8410 O.2     8  VAL8       -0.2715
     13  CB         0.5430   -1.6880   30.5630 C.3     8  VAL8        0.0290
     14  CG1        1.0710   -1.7350   29.1390 C.3     8  VAL8        0.0023
     15  CG2       -0.9530   -2.0340   30.4490 C.3     8  VAL8        0.0023
     16  N          0.0150   -4.6230   31.7060 N.am    9  ALA9       -0.1977
     17  CA        -0.1970   -6.0350   31.3610 C.3     9  ALA9        0.1597
     18  C         -1.4560   -5.9300   30.4720 C.2     9  ALA9        0.2287
     19  O         -2.4520   -5.2520   30.7970 O.2     9  ALA9       -0.2864
     20  CB        -0.3200   -7.0280   32.4460 C.3     9  ALA9        0.0319
     21  N         -8.3980   -6.8510   38.0240 N.3    22  LEU22      -0.1245
     22  CA        -7.7350   -7.4190   36.8560 C.3    22  LEU22       0.1561
     23  C         -8.6120   -8.3010   35.9750 C.2    22  LEU22       0.2260
     24  O         -9.3030   -9.2720   36.3510 O.2    22  LEU22      -0.2867
     25  CB        -6.4990   -8.0850   37.4190 C.3    22  LEU22       0.0270
     26  CG        -5.0330   -7.7780   37.5000 C.3    22  LEU22       0.0019
     27  CD1       -4.6180   -6.4190   37.9500 C.3    22  LEU22       0.0001
     28  CD2       -4.4280   -8.7350   38.5590 C.3    22  LEU22       0.0001
     29  N         -7.8540  -10.6640   34.6450 N.3    24  TRP24      -0.1241
     30  CA        -7.5200  -12.1060   34.7680 C.3    24  TRP24       0.1605
     31  C         -7.1600  -12.5190   36.1880 C.2    24  TRP24       0.2264
     32  O         -6.9340  -11.5750   36.9850 O.2    24  TRP24      -0.2867
     33  CB        -6.2950  -12.4900   33.8740 C.3    24  TRP24       0.0550
     34  CG        -5.2890  -11.3820   34.0150 C.ar   24  TRP24       0.0003
     35  CD1       -4.3460  -11.2830   34.9880 C.ar   24  TRP24       0.0946
     36  CD2       -5.0700  -10.2150   33.1960 C.ar   24  TRP24       0.0152
     37  NE1       -3.6220  -10.1590   34.8600 N.ar   24  TRP24      -0.2442
     38  CE2       -4.0590   -9.4830   33.7730 C.ar   24  TRP24       0.0810
     39  CE3       -5.6420   -9.7290   32.0490 C.ar   24  TRP24       0.0012
     40  CZ2       -3.6590   -8.2490   33.2850 C.ar   24  TRP24       0.0191
     41  CZ3       -5.2380   -8.5290   31.5480 C.ar   24  TRP24       0.0001
     42  CH2       -4.2350   -7.8060   32.1400 C.ar   24  TRP24       0.0015
     43  N          4.0410  -13.1340   37.0330 N.3    30  GLU30      -0.1231
     44  CA         3.8780  -11.8410   36.3560 C.3    30  GLU30       0.1699
     45  C          3.9680  -10.7110   37.3860 C.2    30  GLU30       0.2592
     46  O          4.4430   -9.6440   37.1210 O.2    30  GLU30      -0.2718
     47  CB         2.6210  -11.7870   35.4960 C.3    30  GLU30       0.0402
     48  CG         2.5460  -10.6950   34.4200 C.3    30  GLU30       0.1161
     49  CD         2.2610   -9.3070   34.8100 C.2    30  GLU30       0.3649
     50  OE1        1.2350   -9.1070   35.4880 O.co2  30  GLU30      -0.2457
     51  OE2        2.9060   -8.3080   34.5360 O.co2  30  GLU30      -0.2457
     52  N          3.5420  -10.8870   38.5940 N.am   31  PHE31      -0.1976
     53  CA         3.5210  -10.1090   39.7990 C.3    31  PHE31       0.1639
     54  C          4.9660   -9.9610   40.3010 C.2    31  PHE31       0.2290
     55  O          5.4740   -8.8570   40.6060 O.2    31  PHE31      -0.2864
     56  CB         2.5620  -10.7170   40.8320 C.3    31  PHE31       0.0560
     57  CG         1.1750  -10.1140   40.8120 C.ar   31  PHE31      -0.0200
     58  CD1        0.9930   -8.7500   40.6690 C.ar   31  PHE31      -0.0042
     59  CD2        0.0320  -10.9110   40.8320 C.ar   31  PHE31      -0.0042
     60  CE1       -0.2460   -8.1670   40.6440 C.ar   31  PHE31      -0.0003
     61  CE2       -1.2590  -10.3470   40.7780 C.ar   31  PHE31      -0.0003
     62  CZ        -1.3820   -8.9860   40.7050 C.ar   31  PHE31      -0.0000
     63  N          7.6450  -10.2820   38.6740 N.3    33  TYR33      -0.1227
     64  CA         8.3450   -9.5140   37.6330 C.3    33  TYR33       0.1736
     65  C          8.0460   -8.0230   37.7490 C.2    33  TYR33       0.2595
     66  O          8.8530   -7.0910   37.5890 O.2    33  TYR33      -0.2718
     67  CB         7.8860  -10.0800   36.3120 C.3    33  TYR33       0.0548
     68  CG         8.0000   -9.1680   35.1380 C.ar   33  TYR33      -0.0200
     69  CD1        9.1360   -9.0910   34.3330 C.ar   33  TYR33      -0.0009
     70  CD2        6.8450   -8.4160   34.8360 C.ar   33  TYR33      -0.0009
     71  CE1        9.1390   -8.2410   33.2050 C.ar   33  TYR33       0.0417
     72  CE2        6.8570   -7.5470   33.7250 C.ar   33  TYR33       0.0417
     73  CZ         8.0130   -7.4650   32.9470 C.ar   33  TYR33       0.1957
     74  OH         7.9670   -6.5920   31.9070 O.3    33  TYR33      -0.2866
     75  N          6.7370   -7.8290   37.9380 N.am   34  PHE34      -0.1962
     76  CA         6.2040   -6.4810   38.0890 C.3    34  PHE34       0.1771
     77  C          6.9620   -5.8930   39.2990 C.2    34  PHE34       0.2619
     78  O          7.4050   -4.7550   39.2710 O.2    34  PHE34      -0.2715
     79  CB         4.7070   -6.5080   38.4110 C.3    34  PHE34       0.0574
     80  CG         4.3050   -5.1370   38.9090 C.ar   34  PHE34      -0.0200
     81  CD1        4.3740   -4.8000   40.2390 C.ar   34  PHE34      -0.0042
     82  CD2        3.8840   -4.1770   37.9630 C.ar   34  PHE34      -0.0042
     83  CE1        3.9690   -3.5550   40.6760 C.ar   34  PHE34      -0.0003
     84  CE2        3.4630   -2.9390   38.3850 C.ar   34  PHE34      -0.0003
     85  CZ         3.4720   -2.6470   39.7750 C.ar   34  PHE34      -0.0000
     86  N          6.9850   -6.6820   40.3550 N.am   35  GLN35      -0.1977
     87  CA         7.6900   -6.2660   41.5860 C.3    35  GLN35       0.1601
     88  C          9.1480   -5.9730   41.2120 C.2    35  GLN35       0.2287
     89  O          9.5520   -4.8170   41.5030 O.2    35  GLN35      -0.2864
     90  CB         7.5280   -7.3370   42.6700 C.3    35  GLN35       0.0394
     91  CG         8.4730   -7.1290   43.8170 C.3    35  GLN35       0.0908
     92  CD         7.9900   -7.8470   45.0320 C.2    35  GLN35       0.2608
     93  OE1        7.5910   -7.2460   46.0500 O.2    35  GLN35      -0.2717
     94  NE2        8.0210   -9.1760   44.9970 N.am   35  GLN35      -0.0878
     95  N         -6.2120    2.3590   40.7050 N.3    56  THR56      -0.1218
     96  CA        -5.0950    1.3880   40.6580 C.3    56  THR56       0.1862
     97  C         -4.5780    1.2210   42.0710 C.2    56  THR56       0.2287
     98  O         -4.3020    0.0930   42.4750 O.2    56  THR56      -0.2866
     99  CB        -3.9340    1.7630   39.6690 C.3    56  THR56       0.1770
    100  OG1       -4.4830    1.8360   38.3150 O.3    56  THR56      -0.2211
    101  CG2       -2.6840    0.8590   39.6550 C.3    56  THR56       0.0375
    102  N         -7.1130   -1.3370   44.0220 N.3    59  SER59      -0.1202
    103  CA        -7.0380   -2.6530   43.4700 C.3    59  SER59       0.2020
    104  C         -6.0170   -3.5570   44.1710 C.2    59  SER59       0.2619
    105  O         -6.0060   -4.7920   44.3350 O.2    59  SER59      -0.2717
    106  CB        -6.2700   -2.6130   42.0950 C.3    59  SER59       0.2103
    107  OG        -5.3860   -1.4790   42.1730 O.3    59  SER59      -0.2182
    108  N         -4.9600   -2.8510   44.5440 N.am   60  ILE60      -0.1966
    109  CA        -3.8050   -3.2800   45.3210 C.3    60  ILE60       0.1712
    110  C         -4.2200   -3.4930   46.7730 C.2    60  ILE60       0.2458
    111  O         -4.4830   -2.4740   47.4360 O.2    60  ILE60      -0.2730
    112  CB        -2.7590   -2.0600   45.3440 C.3    60  ILE60       0.0289
    113  CG1       -2.1410   -1.7760   43.9940 C.3    60  ILE60       0.0022
    114  CG2       -1.7210   -2.2510   46.4710 C.3    60  ILE60       0.0023
    115  CD1       -0.8900   -1.0060   43.5440 C.3    60  ILE60       0.0001
    116  N         -4.2550   -4.7080   47.2940 N.am   61  PRO61      -0.2727
    117  CA        -4.5850   -4.9930   48.7020 C.3    61  PRO61       0.1402
    118  C         -4.0090   -3.9920   49.6860 C.2    61  PRO61       0.2269
    119  O         -2.8400   -3.5590   49.5750 O.2    61  PRO61      -0.2865
    120  CB        -3.7470   -6.2650   48.8390 C.3    61  PRO61       0.0296
    121  CG        -4.0790   -7.0640   47.6280 C.3    61  PRO61       0.0237
    122  CD        -4.0010   -5.9600   46.5640 C.3    61  PRO61       0.0939
    123  N         -0.3830   -4.6840   50.9250 N.3    64  ASN64      -0.1240
    124  CA         0.8600   -4.3350   50.2460 C.3    64  ASN64       0.1653
    125  C          0.9150   -2.8210   49.9770 C.2    64  ASN64       0.2266
    126  O          1.6980   -2.4410   49.1050 O.2    64  ASN64      -0.2867
    127  CB         1.0010   -5.0600   48.9110 C.3    64  ASN64       0.1155
    128  CG         0.6810   -6.5360   49.1790 C.2    64  ASN64       0.2627
    129  OD1        1.0610   -6.7160   50.3410 O.2    64  ASN64      -0.2716
    130  ND2        0.1510   -7.1340   48.1340 N.am   64  ASN64      -0.0877
    131  N          3.3580    0.1330   48.3050 N.3    67  LEU67      -0.1231
    132  CA         4.2170   -0.8480   47.7030 C.3    67  LEU67       0.1693
    133  C          5.5580   -0.8390   48.4150 C.2    67  LEU67       0.2591
    134  O          6.1200    0.2470   48.4550 O.2    67  LEU67      -0.2718
    135  CB         4.2360   -0.4660   46.2170 C.3    67  LEU67       0.0284
    136  CG         3.0290   -0.7560   45.3440 C.3    67  LEU67       0.0019
    137  CD1        3.3490   -0.5410   43.8610 C.3    67  LEU67       0.0001
    138  CD2        2.6060   -2.2070   45.6140 C.3    67  LEU67       0.0001
    139  N          6.0460   -1.9610   48.8430 N.am   68  LYS68      -0.1980
    140  CA         7.3810   -2.1190   49.4900 C.3    68  LYS68       0.1596
    141  C          8.5390   -1.7060   48.5820 C.2    68  LYS68       0.2287
    142  O          8.6530   -2.1740   47.4040 O.2    68  LYS68      -0.2864
    143  CB         7.5170   -3.6330   49.8600 C.3    68  LYS68       0.0298
    144  CG         7.6370   -4.5500   48.6820 C.3    68  LYS68       0.0038
    145  CD         8.3270   -5.8580   48.6590 C.3    68  LYS68       0.0206
    146  CE         7.8670   -7.1180   49.3040 C.3    68  LYS68       0.1093
    147  NZ         7.4850   -6.9890   50.7500 N.3    68  LYS68      -0.1314
    148  N          9.6140    1.4290   46.8930 N.3    70  ARG70      -0.1301
    149  CA         9.2960    2.3950   45.8530 C.3    70  ARG70       0.1248
    150  C          8.5610    3.5630   46.4340 C.3    70  ARG70       0.2009
    151  O          7.7790    3.1660   47.3610 O.3    70  ARG70      -0.2188
    152  CB         8.1670    1.6140   45.1220 C.3    70  ARG70       0.0254
    153  CG         8.6740    0.9120   43.8560 C.3    70  ARG70       0.0485
    154  CD         7.7450   -0.1910   43.4610 C.3    70  ARG70       0.2205
    155  NE         7.6060   -1.0840   44.5990 N.pl3  70  ARG70      -0.0865
    156  CZ         7.1880   -2.3320   44.4870 C.cat  70  ARG70       0.5346
    157  NH1        6.7410   -2.7300   43.3230 N.pl3  70  ARG70       0.1354
    158  NH2        7.4350   -3.0910   45.5230 N.pl3  70  ARG70       0.1354
    159  N          2.7490    2.6960   36.2440 N.3   115  VAL115     -0.1245
    160  CA         2.0330    1.4130   36.5510 C.3   115  VAL115      0.1561
    161  C          0.6420    1.5800   35.9900 C.2   115  VAL115      0.2260
    162  O         -0.1310    0.6380   35.7840 O.2   115  VAL115     -0.2867
    163  CB         2.2380    1.3850   38.0730 C.3   115  VAL115      0.0252
    164  CG1        3.6700    1.6280   38.5220 C.3   115  VAL115      0.0019
    165  CG2        1.4640    2.5950   38.6270 C.3   115  VAL115      0.0019
    166  N         -1.4330    6.3620   31.4870 N.3   121  TYR121     -0.1298
    167  CA        -0.6480    5.8740   30.3090 C.3   121  TYR121      0.1290
    168  C         -1.0520    6.9220   29.2750 C.3   121  TYR121      0.2013
    169  O         -0.0910    7.3400   28.6090 O.3   121  TYR121     -0.2188
    170  CB        -0.8530    4.4730   29.8660 C.3   121  TYR121      0.0480
    171  CG        -0.5550    3.4290   30.9080 C.ar  121  TYR121     -0.0204
    172  CD1        0.6370    3.4900   31.6530 C.ar  121  TYR121     -0.0009
    173  CD2       -1.4630    2.3800   31.0950 C.ar  121  TYR121     -0.0009
    174  CE1        0.8710    2.5060   32.6040 C.ar  121  TYR121      0.0417
    175  CE2       -1.1930    1.3940   32.0290 C.ar  121  TYR121      0.0417
    176  CZ        -0.0170    1.4940   32.7820 C.ar  121  TYR121      0.1957
    177  OH         0.2600    0.5380   33.7080 O.3   121  TYR121     -0.2866
    178  N          3.4770   -6.5190   28.9990 N.3   136  THR136     -0.1218
    179  CA         3.1190   -7.8830   29.2900 C.3   136  THR136      0.1862
    180  C          1.8200   -8.3250   28.5170 C.2   136  THR136      0.2287
    181  O          0.6670   -8.0430   28.8560 O.2   136  THR136     -0.2866
    182  CB         2.8720   -8.3060   30.8030 C.3   136  THR136      0.1770
    183  OG1        3.8430   -7.9100   31.7840 O.3   136  THR136     -0.2211
    184  CG2        2.6970   -9.8380   30.9160 C.3   136  THR136      0.0375
@<TRIPOS>BOND
     1   180   181    2
     2   180   179    1
     3   169   168    1
     4   178   179    1
     5    14    13    1
     6   168   167    1
     7   179   182    1
     8   170   167    1
     9   170   171    1
    10   167   166    1
    11    15    13    1
    12    18    19    2
    13    18    17    1
    14    13    10    1
    15   182   184    1
    16   182   183    1
    17    12    11    2
    18   171   173   ar
    19   171   172   ar
    20   173   175   ar
    21    17    16    1
    22    17    20    1
    23    11    16   am
    24    11    10    1
    25    41    39   ar
    26    41    42   ar
    27   172   174   ar
    28    10     9    1
    29     9     3   am
    30    74    73    1
    31   175   176   ar
    32    39    36   ar
    33    42    40   ar
    34     1     2    1
    35   174   176   ar
    36   176   177    1
    37     2     3    1
    38     2     5    1
    39     3     4    2
    40    73    71   ar
    41    73    72   ar
    42    36    38   ar
    43    36    34   ar
    44    71    69   ar
    45    40    38   ar
    46    72    70   ar
    47     6     5    1
    48     6     8    1
    49    38    37   ar
    50    33    34    1
    51    33    30    1
    52     5     7    1
    53    34    35   ar
    54    69    68   ar
    55    48    49    1
    56    48    47    1
    57    51    49   ar
    58    29    30    1
    59    30    31    1
    60    49    50   ar
    61    70    68   ar
    62    37    35   ar
    63    68    67    1
    64    47    44    1
    65   162   161    2
    66    23    24    2
    67    23    22    1
    68   161   160    1
    69    31    32    2
    70   159   160    1
    71    67    64    1
    72    44    43    1
    73    44    45    1
    74   160   163    1
    75    22    25    1
    76    22    21    1
    77    46    45    2
    78    45    52   am
    79    25    26    1
    80    26    27    1
    81    26    28    1
    82    66    65    2
    83    64    65    1
    84    64    63    1
    85    65    75   am
    86    75    76    1
    87    82    84   ar
    88    82    80   ar
    89   163   164    1
    90   163   165    1
    91    76    79    1
    92    76    77    1
    93   100    99    1
    94    84    85   ar
    95    79    80    1
    96    52    53    1
    97    80    81   ar
    98    78    77    2
    99    77    86   am
   100   101    99    1
   101    99    96    1
   102    85    83   ar
   103    53    54    1
   104    53    56    1
   105    81    83   ar
   106    54    55    2
   107    86    87    1
   108    60    58   ar
   109    60    62   ar
   110    96    95    1
   111    96    97    1
   112    58    57   ar
   113    62    61   ar
   114    61    59   ar
   115    57    56    1
   116    57    59   ar
   117    88    89    2
   118    88    87    1
   119    87    90    1
   120    97    98    2
   121   106   107    1
   122   106   103    1
   123    90    91    1
   124   157   156    1
   125   154   153    1
   126   154   155    1
   127   103   102    1
   128   103   104    1
   129   115   113    1
   130    91    92    1
   131   153   152    1
   132   137   136    1
   133   113   112    1
   134   104   105    2
   135   104   108   am
   136   156   155    2
   137   156   158    1
   138   108   109    1
   139    94    92   am
   140    92    93    2
   141   152   149    1
   142   109   112    1
   143   109   110    1
   144   112   114    1
   145   136   138    1
   146   136   135    1
   147   149   150    1
   148   149   148    1
   149   135   132    1
   150   150   151    1
   151   122   116    1
   152   122   121    1
   153   110   116   am
   154   110   111    2
   155   116   117    1
   156   142   141    2
   157   121   120    1
   158   132   131    1
   159   132   133    1
   160   130   128   am
   161   133   134    2
   162   133   139   am
   163   141   140    1
   164   145   144    1
   165   145   146    1
   166   144   143    1
   167   117   120    1
   168   117   118    1
   169   139   140    1
   170   127   128    1
   171   127   124    1
   172   126   125    2
   173   128   129    2
   174   146   147    1
   175   140   143    1
   176   119   118    2
   177   125   124    1
   178   124   123    1
