@<TRIPOS>MOLECULE
tmp/1ohlA00.pdb
 179 168 0 0 0
SMALL
GASTEIGER

@<TRIPOS>ATOM
      1  N         16.0210   32.1940   21.7580 N.3    89  PHE89      -0.1241
      2  CA        17.2930   31.6170   22.1410 C.3    89  PHE89       0.1605
      3  C         17.9540   32.5150   23.2060 C.2    89  PHE89       0.2264
      4  O         18.1830   33.6960   22.9470 O.2    89  PHE89      -0.2867
      5  CB        18.2280   31.4820   20.9430 C.3    89  PHE89       0.0534
      6  CG        17.8640   30.3830   19.9890 C.ar   89  PHE89      -0.0203
      7  CD1       17.1570   30.6590   18.8310 C.ar   89  PHE89      -0.0042
      8  CD2       18.2450   29.0750   20.2350 C.ar   89  PHE89      -0.0042
      9  CE1       16.8250   29.6530   17.9460 C.ar   89  PHE89      -0.0003
     10  CE2       17.9220   28.0610   19.3490 C.ar   89  PHE89      -0.0003
     11  CZ        17.2110   28.3530   18.2010 C.ar   89  PHE89      -0.0000
     12  N         13.0850   27.8030   22.1000 N.3   131  ASP131     -0.1239
     13  CA        13.8750   26.5620   21.9170 C.3   131  ASP131      0.1674
     14  C         14.1230   25.9660   23.3130 C.2   131  ASP131      0.2266
     15  O         14.3990   26.7130   24.2550 O.2   131  ASP131     -0.2867
     16  CB        15.2190   26.9100   21.2750 C.3   131  ASP131      0.1410
     17  CG        16.0450   25.6720   20.9690 C.2   131  ASP131      0.3668
     18  OD1       15.8820   25.1110   19.8660 O.co2 131  ASP131     -0.2456
     19  OD2       16.8520   25.2720   21.8320 O.co2 131  ASP131     -0.2456
     20  N         16.4600   23.5860   25.5880 N.3   133  CYS133     -0.1235
     21  CA        17.7110   22.8800   25.7360 C.3   133  CYS133      0.1677
     22  C         18.5370   23.4090   26.9000 C.2   133  CYS133      0.2270
     23  O         18.2130   24.4460   27.4800 O.2   133  CYS133     -0.2867
     24  CB        18.5290   22.8770   24.4510 C.3   133  CYS133      0.0956
     25  SG        19.5940   21.4000   24.3240 S.3   133  CYS133     -0.0801
     26  N         22.2170   23.1760   26.6270 N.3   135  CYS135     -0.1221
     27  CA        23.4980   23.4800   26.0530 C.3   135  CYS135      0.1808
     28  C         23.9840   24.8860   26.2950 C.2   135  CYS135      0.2601
     29  O         25.1700   25.0920   26.5860 O.2   135  CYS135     -0.2717
     30  CB        23.6050   23.0780   24.5960 C.3   135  CYS135      0.0970
     31  SG        22.4670   23.9110   23.4420 S.3   135  CYS135     -0.0800
     32  N         23.1140   25.8880   26.1960 N.am  136  GLU136     -0.1979
     33  CA        23.5240   27.2660   26.4110 C.3   136  GLU136      0.1602
     34  C         23.5740   27.6410   27.8800 C.2   136  GLU136      0.2287
     35  O         23.9510   28.7690   28.2210 O.2   136  GLU136     -0.2864
     36  CB        22.6090   28.2270   25.6470 C.3   136  GLU136      0.0415
     37  CG        22.3960   27.8660   24.1900 C.3   136  GLU136      0.1163
     38  CD        21.1230   28.4380   23.6030 C.2   136  GLU136      0.3649
     39  OE1       20.1750   27.6640   23.3510 O.co2 136  GLU136     -0.2457
     40  OE2       21.0580   29.6660   23.3860 O.co2 136  GLU136     -0.2457
     41  N         23.7980   19.4170   25.6670 N.3   143  CYS143     -0.1235
     42  CA        22.3710   19.5280   25.6440 C.3   143  CYS143      0.1677
     43  C         21.6520   18.9960   26.8500 C.2   143  CYS143      0.2270
     44  O         20.4930   19.3750   27.1000 O.2   143  CYS143     -0.2867
     45  CB        21.7700   19.0210   24.3400 C.3   143  CYS143      0.0956
     46  SG        22.3650   19.9180   22.8630 S.3   143  CYS143     -0.0801
     47  N         15.2720   20.9790   21.3410 N.3   179  SER179     -0.1217
     48  CA        16.2970   20.6890   20.3460 C.3   179  SER179      0.1889
     49  C         17.4380   19.8640   20.9260 C.2   179  SER179      0.2288
     50  O         18.5090   19.7750   20.3200 O.2   179  SER179     -0.2866
     51  CB        16.8600   22.0160   19.7960 C.3   179  SER179      0.2089
     52  OG        17.3730   22.7990   20.8640 O.3   179  SER179     -0.2183
     53  N         12.1470   18.8680   17.6650 N.3   207  TYR207     -0.1241
     54  CA        13.2150   18.7530   16.6330 C.3   207  TYR207      0.1605
     55  C         13.4430   17.2100   16.4960 C.2   207  TYR207      0.2264
     56  O         14.4570   16.6930   16.9240 O.2   207  TYR207     -0.2867
     57  CB        14.5020   19.3680   17.1730 C.3   207  TYR207      0.0534
     58  CG        14.5850   20.8690   17.1770 C.ar  207  TYR207     -0.0201
     59  CD1       14.1040   21.6070   18.2520 C.ar  207  TYR207     -0.0009
     60  CD2       15.1990   21.5570   16.1370 C.ar  207  TYR207     -0.0009
     61  CE1       14.1960   22.9830   18.2790 C.ar  207  TYR207      0.0417
     62  CE2       15.2940   22.9360   16.1560 C.ar  207  TYR207      0.0417
     63  CZ        14.8010   23.6420   17.2310 C.ar  207  TYR207      0.1957
     64  OH        14.9170   25.0130   17.2720 O.3   207  TYR207     -0.2866
     65  N         17.0740   15.9100   13.9790 N.3   210  LYS210     -0.1245
     66  CA        18.2110   16.8220   14.1090 C.3   210  LYS210      0.1561
     67  C         19.5160   16.0300   13.9450 C.2   210  LYS210      0.2260
     68  O         19.8930   15.2660   14.8290 O.2   210  LYS210     -0.2867
     69  CB        18.1870   17.5130   15.4680 C.3   210  LYS210      0.0271
     70  CG        18.9080   18.8470   15.5290 C.3   210  LYS210      0.0035
     71  CD        18.8690   19.3970   16.9520 C.3   210  LYS210      0.0206
     72  CE        20.1110   20.2130   17.2630 C.3   210  LYS210      0.1093
     73  NZ        19.7660   21.5430   17.8380 N.3   210  LYS210     -0.1314
     74  N         26.5300   23.8440   12.0490 N.3   216  TYR216     -0.1241
     75  CA        25.9910   24.5520   13.2100 C.3   216  TYR216      0.1605
     76  C         26.9910   25.5690   13.7510 C.2   216  TYR216      0.2264
     77  O         26.7570   26.1850   14.7930 O.2   216  TYR216     -0.2867
     78  CB        25.6170   23.5540   14.3080 C.3   216  TYR216      0.0534
     79  CG        24.5340   22.5800   13.9100 C.ar  216  TYR216     -0.0201
     80  CD1       23.3580   23.0250   13.3220 C.ar  216  TYR216     -0.0009
     81  CD2       24.6880   21.2140   14.1120 C.ar  216  TYR216     -0.0009
     82  CE1       22.3650   22.1370   12.9520 C.ar  216  TYR216      0.0417
     83  CE2       23.7010   20.3180   13.7430 C.ar  216  TYR216      0.0417
     84  CZ        22.5420   20.7870   13.1670 C.ar  216  TYR216      0.1957
     85  OH        21.5460   19.9110   12.8030 O.3   216  TYR216     -0.2866
     86  N         26.1760   29.3920   14.7470 N.3   219  PHE219     -0.1227
     87  CA        25.2520   29.4030   15.8710 C.3   219  PHE219      0.1736
     88  C         25.9890   29.3900   17.2060 C.2   219  PHE219      0.2595
     89  O         25.5710   30.0550   18.1550 O.2   219  PHE219     -0.2718
     90  CB        24.2950   28.2100   15.7920 C.3   219  PHE219      0.0547
     91  CG        23.3500   28.1280   16.9580 C.ar  219  PHE219     -0.0202
     92  CD1       22.1130   28.7440   16.9050 C.ar  219  PHE219     -0.0042
     93  CD2       23.7070   27.4480   18.1090 C.ar  219  PHE219     -0.0042
     94  CE1       21.2380   28.6730   17.9730 C.ar  219  PHE219     -0.0003
     95  CE2       22.8400   27.3690   19.1860 C.ar  219  PHE219     -0.0003
     96  CZ        21.6040   27.9860   19.1170 C.ar  219  PHE219     -0.0000
     97  N         27.0770   28.6330   17.2740 N.am  220  ARG220     -0.1980
     98  CA        27.8790   28.5190   18.4800 C.3   220  ARG220      0.1597
     99  C         28.5400   29.8390   18.8490 C.2   220  ARG220      0.2287
    100  O         29.0950   29.9840   19.9400 O.2   220  ARG220     -0.2864
    101  CB        28.9320   27.4190   18.3290 C.3   220  ARG220      0.0334
    102  CG        28.4200   26.0320   18.6900 C.3   220  ARG220      0.0492
    103  CD        28.5360   25.0760   17.5160 C.3   220  ARG220      0.2205
    104  NE        27.5610   23.9920   17.5920 N.pl3 220  ARG220     -0.0865
    105  CZ        27.8270   22.7300   17.2700 C.cat 220  ARG220      0.5346
    106  NH1       29.0400   22.3940   16.8540 N.pl3 220  ARG220      0.1354
    107  NH2       26.8820   21.8060   17.3650 N.pl3 220  ARG220      0.1354
    108  N         27.1440   28.2860   22.6240 N.3   225  SER225     -0.1217
    109  CA        26.7740   26.9600   23.1020 C.3   225  SER225      0.1889
    110  C         27.5550   25.8680   22.3830 C.2   225  SER225      0.2288
    111  O         26.9840   25.0670   21.6430 O.2   225  SER225     -0.2866
    112  CB        25.2720   26.7300   22.9500 C.3   225  SER225      0.2089
    113  OG        24.9440   26.2830   21.6470 O.3   225  SER225     -0.2183
    114  N         28.4930   16.1640   19.8020 N.3   232  ARG232     -0.1245
    115  CA        27.1170   15.7430   20.0330 C.3   232  ARG232      0.1563
    116  C         26.7540   14.5320   19.1740 C.2   232  ARG232      0.2260
    117  O         25.5710   14.2080   19.0350 O.2   232  ARG232     -0.2867
    118  CB        26.1490   16.8890   19.7420 C.3   232  ARG232      0.0307
    119  CG        26.4690   18.2550   20.3210 C.3   232  ARG232      0.0489
    120  CD        25.2800   19.1720   20.0970 C.3   232  ARG232      0.2205
    121  NE        25.4580   20.5680   20.4440 N.pl3 232  ARG232     -0.0865
    122  CZ        25.8560   21.0360   21.6200 C.cat 232  ARG232      0.5346
    123  NH1       26.1480   20.1980   22.6040 N.pl3 232  ARG232      0.1354
    124  NH2       25.9540   22.3440   21.8180 N.pl3 232  ARG232      0.1354
    125  N         22.7890   13.5990   18.5830 N.3   236  GLN236     -0.1245
    126  CA        22.2870   14.0550   17.2720 C.3   236  GLN236      0.1566
    127  C         22.4800   12.9280   16.2550 C.2   236  GLN236      0.2260
    128  O         23.4900   12.2240   16.3170 O.2   236  GLN236     -0.2867
    129  CB        23.0310   15.3090   16.8330 C.3   236  GLN236      0.0367
    130  CG        22.5220   16.5810   17.4980 C.3   236  GLN236      0.0905
    131  CD        23.3250   17.8160   17.1480 C.2   236  GLN236      0.2608
    132  OE1       24.3160   17.7570   16.4190 O.2   236  GLN236     -0.2717
    133  NE2       22.9020   18.9630   17.6720 N.am  236  GLN236     -0.0878
    134  N         16.2360   19.5840   10.9440 N.3   263  LYS263     -0.1245
    135  CA        17.4420   20.4300   10.9900 C.3   263  LYS263      0.1561
    136  C         18.6840   19.5810   10.7620 C.2   263  LYS263      0.2260
    137  O         18.8760   18.5730   11.4480 O.2   263  LYS263     -0.2867
    138  CB        17.5050   21.0820   12.3830 C.3   263  LYS263      0.0271
    139  CG        18.6280   22.0140   12.7280 C.3   263  LYS263      0.0035
    140  CD        18.7540   22.1970   14.2380 C.3   263  LYS263      0.0206
    141  CE        19.2260   23.5700   14.6750 C.3   263  LYS263      0.1093
    142  NZ        20.2270   23.5280   15.7690 N.3   263  LYS263     -0.1314
    143  N         14.3500   24.0230    9.2890 N.3   287  TYR287     -0.1241
    144  CA        15.1990   24.9900    9.9800 C.3   287  TYR287      0.1605
    145  C         16.4550   25.2810    9.1580 C.2   287  TYR287      0.2264
    146  O         17.3470   24.4400    9.0690 O.2   287  TYR287     -0.2867
    147  CB        15.5820   24.5020   11.3720 C.3   287  TYR287      0.0534
    148  CG        16.1610   25.5760   12.2690 C.ar  287  TYR287     -0.0201
    149  CD1       15.8170   25.6480   13.6130 C.ar  287  TYR287     -0.0009
    150  CD2       17.0470   26.5270   11.7810 C.ar  287  TYR287     -0.0009
    151  CE1       16.3360   26.6280   14.4420 C.ar  287  TYR287      0.0417
    152  CE2       17.5750   27.5110   12.6030 C.ar  287  TYR287      0.0417
    153  CZ        17.2150   27.5610   13.9340 C.ar  287  TYR287      0.1957
    154  OH        17.7290   28.5360   14.7610 O.3   287  TYR287     -0.2866
    155  N         19.6160   26.4360    9.1320 N.3   289  VAL289     -0.1231
    156  CA        20.6860   26.6360   10.0570 C.3   289  VAL289      0.1692
    157  C         21.7290   27.6410    9.6440 C.2   289  VAL289      0.2592
    158  O         21.9400   27.9350    8.4690 O.2   289  VAL289     -0.2718
    159  CB        21.3320   25.3470   10.5620 C.3   289  VAL289      0.0266
    160  CG1       20.2830   24.3940   11.1120 C.3   289  VAL289      0.0020
    161  CG2       22.1870   24.6990    9.4940 C.3   289  VAL289      0.0020
    162  N         22.4060   28.1760   10.6560 N.am  290  SER290     -0.1952
    163  CA        23.4540   29.1610   10.5300 C.3   290  SER290      0.1924
    164  C         24.4610   28.8040    9.4450 C.2   290  SER290      0.2314
    165  O         24.8140   29.6510    8.6240 O.2   290  SER290     -0.2863
    166  CB        24.1770   29.3600   11.8690 C.3   290  SER290      0.2116
    167  OG        24.6180   28.1160   12.3830 O.3   290  SER290     -0.2180
    168  N         16.8710   32.7700    9.0330 N.3   329  TYR329     -0.1241
    169  CA        17.4860   34.0550    9.3580 C.3   329  TYR329      0.1605
    170  C         17.2120   35.0630    8.2380 C.2   329  TYR329      0.2264
    171  O         17.5050   36.2470    8.3630 O.2   329  TYR329     -0.2867
    172  CB        19.0020   33.8760    9.5290 C.3   329  TYR329      0.0534
    173  CG        19.3260   32.9170   10.6570 C.ar  329  TYR329     -0.0201
    174  CD1       19.7540   31.6230   10.4000 C.ar  329  TYR329     -0.0009
    175  CD2       19.1130   33.2990   11.9750 C.ar  329  TYR329     -0.0009
    176  CE1       20.0150   30.7430   11.4370 C.ar  329  TYR329      0.0417
    177  CE2       19.3910   32.4340   13.0190 C.ar  329  TYR329      0.0417
    178  CZ        19.8180   31.1520   12.7390 C.ar  329  TYR329      0.1957
    179  OH        20.0580   30.2880   13.7830 O.3   329  TYR329     -0.2866
@<TRIPOS>BOND
     1   170   171    2
     2   170   169    1
     3   158   157    2
     4   165   164    2
     5   168   169    1
     6   146   145    2
     7   155   156    1
     8   145   144    1
     9   143   144    1
    10   169   172    1
    11   164   163    1
    12   161   159    1
    13   172   173    1
    14   157   156    1
    15   157   162   am
    16   144   147    1
    17   156   159    1
    18   174   173   ar
    19   174   176   ar
    20   163   162    1
    21   163   166    1
    22   159   160    1
    23   173   175   ar
    24   136   135    1
    25   136   137    2
    26   134   135    1
    27   135   138    1
    28   147   148    1
    29   176   178   ar
    30   150   148   ar
    31   150   152   ar
    32   166   167    1
    33   175   177   ar
    34    74    75    1
    35   148   149   ar
    36   138   139    1
    37   152   153   ar
    38   139   140    1
    39   178   177   ar
    40   178   179    1
    41    85    84    1
    42    82    84   ar
    43    82    80   ar
    44    84    83   ar
    45    75    76    1
    46    75    78    1
    47    80    79   ar
    48   149   151   ar
    49    83    81   ar
    50    76    77    2
    51    79    81   ar
    52    79    78    1
    53   153   151   ar
    54   153   154    1
    55    67    66    1
    56    67    68    2
    57    65    66    1
    58    66    69    1
    59   140   141    1
    60   141   142    1
    61    86    87    1
    62    69    70    1
    63    70    71    1
    64    90    87    1
    65    90    91    1
    66    87    88    1
    67    60    62   ar
    68    60    58   ar
    69    62    63   ar
    70   127   128    2
    71   127   126    1
    72   132   131    2
    73    55    54    1
    74    55    56    2
    75    54    57    1
    76    54    53    1
    77   129   126    1
    78   129   130    1
    79   106   105    1
    80    92    91   ar
    81    92    94   ar
    82    71    72    1
    83    91    93   ar
    84   131   130    1
    85   131   133   am
    86    57    58    1
    87    58    59   ar
    88    88    97   am
    89    88    89    2
    90    63    64    1
    91    63    61   ar
    92    72    73    1
    93   105   107    1
    94   105   104    2
    95   126   125    1
    96    97    98    1
    97   103   104    1
    98   103   102    1
    99     9    11   ar
   100     9     7   ar
   101    94    96   ar
   102    93    95   ar
   103    11    10   ar
   104    59    61   ar
   105   101    98    1
   106   101   102    1
   107    98    99    1
   108     7     6   ar
   109    99   100    2
   110   117   116    2
   111    96    95   ar
   112   116   115    1
   113    10     8   ar
   114   118   115    1
   115   118   119    1
   116    51    48    1
   117    51    52    1
   118   114   115    1
   119    18    17   ar
   120     6     8   ar
   121     6     5    1
   122   120   119    1
   123   120   121    1
   124    50    49    2
   125    48    49    1
   126    48    47    1
   127   121   122    2
   128     5     2    1
   129    17    16    1
   130    17    19   ar
   131    16    13    1
   132   122   124    1
   133   122   123    1
   134   111   110    2
   135   113   112    1
   136     1     2    1
   137    13    12    1
   138    13    14    1
   139     2     3    1
   140   110   109    1
   141   108   109    1
   142    46    45    1
   143     4     3    2
   144   112   109    1
   145    14    15    2
   146    39    38   ar
   147    40    38   ar
   148    31    30    1
   149    38    37    1
   150    37    36    1
   151    25    24    1
   152    45    42    1
   153    24    21    1
   154    30    27    1
   155    20    21    1
   156    42    41    1
   157    42    43    1
   158    36    33    1
   159    21    22    1
   160    27    28    1
   161    27    26    1
   162    32    28   am
   163    32    33    1
   164    28    29    2
   165    33    34    1
   166    43    44    2
   167    22    23    2
   168    34    35    2
