@<TRIPOS>MOLECULE
tmp/1ohpC00.pdb
 156 146 0 0 0
SMALL
GASTEIGER

@<TRIPOS>ATOM
      1  N         34.3620    6.2760   47.3430 N.3    14  TYR14      -0.1241
      2  CA        33.9500    7.4680   46.6130 C.3    14  TYR14       0.1605
      3  C         32.7880    8.1310   47.3500 C.2    14  TYR14       0.2264
      4  O         32.8150    9.3300   47.6300 O.2    14  TYR14      -0.2867
      5  CB        33.5230    7.0640   45.1970 C.3    14  TYR14       0.0534
      6  CG        32.9860    8.1820   44.3330 C.ar   14  TYR14      -0.0201
      7  CD1       33.8190    9.2060   43.8830 C.ar   14  TYR14      -0.0009
      8  CD2       31.6500    8.1910   43.9250 C.ar   14  TYR14      -0.0009
      9  CE1       33.3390   10.2080   43.0450 C.ar   14  TYR14       0.0417
     10  CE2       31.1570    9.1920   43.0860 C.ar   14  TYR14       0.0417
     11  CZ        32.0070   10.1940   42.6500 C.ar   14  TYR14       0.1957
     12  OH        31.5370   11.1780   41.8120 O.3    14  TYR14      -0.2866
     13  N         32.6810   11.7470   49.3680 N.3    18  LEU18      -0.1245
     14  CA        31.7300   12.8100   49.0590 C.3    18  LEU18       0.1561
     15  C         31.0360   13.2630   50.3390 C.2    18  LEU18       0.2260
     16  O         30.8550   14.4580   50.5710 O.2    18  LEU18      -0.2867
     17  CB        30.6840   12.3280   48.0500 C.3    18  LEU18       0.0270
     18  CG        31.1510   12.1940   46.5960 C.3    18  LEU18       0.0019
     19  CD1       30.0910   11.4780   45.7870 C.3    18  LEU18       0.0001
     20  CD2       31.4290   13.5660   46.0120 C.3    18  LEU18       0.0001
     21  N         29.8930   14.6260   33.8880 N.3    38  ASN38      -0.1240
     22  CA        28.7960   14.7770   34.8360 C.3    38  ASN38       0.1653
     23  C         27.9840   16.0410   34.5920 C.2    38  ASN38       0.2266
     24  O         28.4330   17.1480   34.8920 O.2    38  ASN38      -0.2867
     25  CB        29.3420   14.8140   36.2640 C.3    38  ASN38       0.1155
     26  CG        28.2480   15.0010   37.2980 C.2    38  ASN38       0.2627
     27  OD1       27.5350   14.0620   37.6370 O.2    38  ASN38      -0.2716
     28  ND2       28.1010   16.2250   37.7920 N.am   38  ASN38      -0.0877
     29  N         36.3500   20.3220   39.5190 N.3    54  PHE54      -0.1227
     30  CA        34.9580   19.9020   39.4690 C.3    54  PHE54       0.1736
     31  C         34.4320   19.5080   40.8440 C.2    54  PHE54       0.2595
     32  O         33.3950   19.9990   41.2880 O.2    54  PHE54      -0.2718
     33  CB        34.7900   18.7180   38.5180 C.3    54  PHE54       0.0547
     34  CG        33.4290   18.0940   38.5760 C.ar   54  PHE54      -0.0202
     35  CD1       32.3200   18.7690   38.0790 C.ar   54  PHE54      -0.0042
     36  CD2       33.2480   16.8440   39.1600 C.ar   54  PHE54      -0.0042
     37  CE1       31.0500   18.2100   38.1620 C.ar   54  PHE54      -0.0003
     38  CE2       31.9840   16.2770   39.2500 C.ar   54  PHE54      -0.0003
     39  CZ        30.8820   16.9610   38.7500 C.ar   54  PHE54      -0.0000
     40  N         35.1400   18.6070   41.5130 N.am   55  TYR55      -0.1976
     41  CA        34.7030   18.1680   42.8280 C.3    55  TYR55       0.1639
     42  C         34.8360   19.2510   43.8920 C.2    55  TYR55       0.2290
     43  O         34.0650   19.2800   44.8450 O.2    55  TYR55      -0.2864
     44  CB        35.4540   16.8990   43.2420 C.3    55  TYR55       0.0560
     45  CG        34.9420   15.6680   42.5230 C.ar   55  TYR55      -0.0198
     46  CD1       35.6320   15.1260   41.4380 C.ar   55  TYR55      -0.0009
     47  CD2       33.7310   15.0820   42.8940 C.ar   55  TYR55      -0.0009
     48  CE1       35.1220   14.0290   40.7340 C.ar   55  TYR55       0.0417
     49  CE2       33.2110   13.9890   42.1980 C.ar   55  TYR55       0.0417
     50  CZ        33.9140   13.4700   41.1200 C.ar   55  TYR55       0.1957
     51  OH        33.4050   12.3950   40.4290 O.3    55  TYR55      -0.2866
     52  N         31.7490   21.0330   43.5740 N.3    58  SER58      -0.1217
     53  CA        30.6490   20.1560   43.9570 C.3    58  SER58       0.1889
     54  C         30.5090   20.0610   45.4730 C.2    58  SER58       0.2288
     55  O         29.4040   19.9100   45.9950 O.2    58  SER58      -0.2866
     56  CB        30.8660   18.7570   43.3770 C.3    58  SER58       0.2089
     57  OG        30.8760   18.7910   41.9600 O.3    58  SER58      -0.2183
     58  N         28.8080   22.8930   48.7880 N.3    61  LEU61      -0.1245
     59  CA        27.6830   22.7160   49.6960 C.3    61  LEU61       0.1561
     60  C         27.7430   21.3070   50.2780 C.2    61  LEU61       0.2260
     61  O         28.1630   20.3670   49.6030 O.2    61  LEU61      -0.2867
     62  CB        26.3560   22.9020   48.9530 C.3    61  LEU61       0.0270
     63  CG        26.0120   24.2870   48.3940 C.3    61  LEU61       0.0019
     64  CD1       26.0340   25.3050   49.5230 C.3    61  LEU61       0.0001
     65  CD2       26.9950   24.6740   47.3020 C.3    61  LEU61       0.0001
     66  N         27.0410   17.6450   51.1180 N.3    63  LEU63      -0.1245
     67  CA        26.3030   16.6250   50.3880 C.3    63  LEU63       0.1561
     68  C         26.0520   15.3850   51.2320 C.2    63  LEU63       0.2260
     69  O         26.9100   14.9630   52.0060 O.2    63  LEU63      -0.2867
     70  CB        27.0730   16.2100   49.1310 C.3    63  LEU63       0.0270
     71  CG        27.4590   17.2680   48.0940 C.3    63  LEU63       0.0019
     72  CD1       28.3240   16.6200   47.0250 C.3    63  LEU63       0.0001
     73  CD2       26.2150   17.8790   47.4720 C.3    63  LEU63       0.0001
     74  N         22.3050    5.6180   43.2590 N.3    82  PHE82      -0.1241
     75  CA        22.4150    6.3030   44.5330 C.3    82  PHE82       0.1605
     76  C         21.6460    7.6100   44.5240 C.2    82  PHE82       0.2264
     77  O         21.0240    7.9730   43.5270 O.2    82  PHE82      -0.2867
     78  CB        23.8910    6.5890   44.8310 C.3    82  PHE82       0.0534
     79  CG        24.5630    7.4830   43.8150 C.ar   82  PHE82      -0.0203
     80  CD1       24.8980    8.7970   44.1370 C.ar   82  PHE82      -0.0042
     81  CD2       24.8800    7.0070   42.5450 C.ar   82  PHE82      -0.0042
     82  CE1       25.5440    9.6210   43.2090 C.ar   82  PHE82      -0.0003
     83  CE2       25.5250    7.8260   41.6100 C.ar   82  PHE82      -0.0003
     84  CZ        25.8570    9.1330   41.9460 C.ar   82  PHE82      -0.0000
     85  N         21.8000   11.8630   46.0370 N.3    84  VAL84      -0.1245
     86  CA        22.6190   12.9440   46.5620 C.3    84  VAL84       0.1561
     87  C         21.6230   13.9940   47.0180 C.2    84  VAL84       0.2260
     88  O         20.8560   14.5230   46.2120 O.2    84  VAL84      -0.2867
     89  CB        23.5350   13.5440   45.4810 C.3    84  VAL84       0.0252
     90  CG1       24.3720   14.6650   46.0730 C.3    84  VAL84       0.0019
     91  CG2       24.4300   12.4620   44.9040 C.3    84  VAL84       0.0019
     92  N         20.8010   17.6260   49.2410 N.3    86  PHE86      -0.1241
     93  CA        21.3710   18.8860   49.6940 C.3    86  PHE86       0.1605
     94  C         20.2710   19.9400   49.7160 C.2    86  PHE86       0.2264
     95  O         19.1880   19.7230   49.1740 O.2    86  PHE86      -0.2867
     96  CB        22.4850   19.3150   48.7380 C.3    86  PHE86       0.0534
     97  CG        22.0270   19.4820   47.3170 C.ar   86  PHE86      -0.0203
     98  CD1       21.3990   20.6550   46.9080 C.ar   86  PHE86      -0.0042
     99  CD2       22.1810   18.4500   46.3970 C.ar   86  PHE86      -0.0042
    100  CE1       20.9290   20.7970   45.6060 C.ar   86  PHE86      -0.0003
    101  CE2       21.7140   18.5830   45.0920 C.ar   86  PHE86      -0.0003
    102  CZ        21.0860   19.7600   44.6980 C.ar   86  PHE86      -0.0000
    103  N         18.9620   14.2860   44.1080 N.3    95  VAL95      -0.1245
    104  CA        19.3100   13.8920   42.7490 C.3    95  VAL95       0.1561
    105  C         19.6100   12.3960   42.8020 C.2    95  VAL95       0.2260
    106  O         20.3660   11.9430   43.6600 O.2    95  VAL95      -0.2867
    107  CB        20.5510   14.6590   42.2360 C.3    95  VAL95       0.0252
    108  CG1       20.8840   14.2310   40.8070 C.3    95  VAL95       0.0019
    109  CG2       20.2870   16.1590   42.2760 C.3    95  VAL95       0.0019
    110  N         21.1450    9.7050   40.4780 N.3    97  PRO97      -0.2116
    111  CA        21.8040    9.2660   39.2510 C.3    97  PRO97       0.1372
    112  C         22.2130    7.8020   39.2770 C.2    97  PRO97       0.2244
    113  O         21.9820    7.0800   40.2470 O.2    97  PRO97      -0.2868
    114  CB        23.0510   10.1580   39.1810 C.3    97  PRO97       0.0268
    115  CG        23.0480   10.9820   40.5030 C.3    97  PRO97       0.0207
    116  CD        22.1250   10.2510   41.4250 C.3    97  PRO97       0.0892
    117  N         25.7990    6.0320   38.1780 N.3    99  ASP99      -0.1239
    118  CA        27.1620    6.3210   37.7520 C.3    99  ASP99       0.1674
    119  C         27.7700    5.0730   37.1220 C.2    99  ASP99       0.2266
    120  O         27.5090    3.9490   37.5570 O.2    99  ASP99      -0.2867
    121  CB        28.0210    6.7560   38.9500 C.3    99  ASP99       0.1410
    122  CG        27.9160    8.2440   39.2580 C.2    99  ASP99       0.3668
    123  OD1       26.9980    8.9230   38.7490 O.co2  99  ASP99      -0.2456
    124  OD2       28.7660    8.7430   40.0300 O.co2  99  ASP99      -0.2456
    125  N         34.4700    8.2940   34.4800 N.3   112  MET112     -0.1245
    126  CA        33.3740    8.4600   35.4230 C.3   112  MET112      0.1570
    127  C         32.2700    9.1450   34.6200 C.2   112  MET112      0.2261
    128  O         32.4150   10.3010   34.2380 O.2   112  MET112     -0.2867
    129  CB        33.8280    9.3620   36.5750 C.3   112  MET112      0.0387
    130  CG        33.0520    9.2340   37.8710 C.3   112  MET112      0.0595
    131  SD        31.2900    9.5160   37.7200 S.3   112  MET112     -0.1393
    132  CE        31.2590   11.1620   37.0380 C.3   112  MET112      0.0692
    133  N         28.2380   10.0840   34.7190 N.3   114  ALA114     -0.1245
    134  CA        27.0330   10.1390   35.5360 C.3   114  ALA114      0.1562
    135  C         25.7740   10.3790   34.7240 C.2   114  ALA114      0.2260
    136  O         25.6410   11.3990   34.0480 O.2   114  ALA114     -0.2867
    137  CB        27.1760   11.2180   36.5980 C.3   114  ALA114      0.0290
    138  N         21.8820   11.1630   34.6660 N.3   116  PHE116     -0.1241
    139  CA        20.7330   11.6900   35.3810 C.3   116  PHE116      0.1605
    140  C         20.1870   12.8430   34.5600 C.2   116  PHE116      0.2264
    141  O         20.9450   13.5820   33.9330 O.2   116  PHE116     -0.2867
    142  CB        21.0890   12.1490   36.8100 C.3   116  PHE116      0.0534
    143  CG        22.0780   13.2860   36.8820 C.ar  116  PHE116     -0.0203
    144  CD1       23.4460   13.0390   36.8860 C.ar  116  PHE116     -0.0042
    145  CD2       21.6360   14.6040   36.9980 C.ar  116  PHE116     -0.0042
    146  CE1       24.3620   14.0850   37.0120 C.ar  116  PHE116     -0.0003
    147  CE2       22.5420   15.6590   37.1240 C.ar  116  PHE116     -0.0003
    148  CZ        23.9080   15.3980   37.1320 C.ar  116  PHE116     -0.0000
    149  N         15.9290   14.6600   39.1480 N.3   121  ILE121     -0.1245
    150  CA        16.2040   15.7370   40.0910 C.3   121  ILE121      0.1561
    151  C         14.8740   16.0660   40.7570 C.2   121  ILE121      0.2260
    152  O         13.9690   16.6000   40.1160 O.2   121  ILE121     -0.2867
    153  CB        16.7250   17.0010   39.3770 C.3   121  ILE121      0.0252
    154  CG1       18.0370   16.6880   38.6540 C.3   121  ILE121      0.0019
    155  CG2       16.9200   18.1260   40.3920 C.3   121  ILE121      0.0019
    156  CD1       18.5770   17.8430   37.8360 C.3   121  ILE121      0.0001
@<TRIPOS>BOND
     1    21    22    1
     2   141   140    2
     3   136   135    2
     4   128   127    2
     5   125   126    1
     6   140   139    1
     7    23    22    1
     8    23    24    2
     9   127   126    1
    10   138   139    1
    11   133   134    1
    12   135   134    1
    13    22    25    1
    14   139   142    1
    15   126   129    1
    16   134   137    1
    17    25    26    1
    18   129   130    1
    19   142   143    1
    20   143   144   ar
    21   143   145   ar
    22   144   146   ar
    23   145   147   ar
    24   146   148   ar
    25   132   131    1
    26   119   120    2
    27   119   118    1
    28   147   148   ar
    29    26    27    2
    30    26    28   am
    31   131   130    1
    32   118   117    1
    33   118   121    1
    34   156   154    1
    35    35    37   ar
    36    35    34   ar
    37    37    39   ar
    38    33    34    1
    39    33    30    1
    40    34    36   ar
    41   154   153    1
    42   123   122   ar
    43    39    38   ar
    44   121   122    1
    45   149   150    1
    46    36    38   ar
    47   114   111    1
    48   114   115    1
    49   111   112    1
    50   111   110    1
    51   122   124   ar
    52   112   113    2
    53   153   150    1
    54   153   155    1
    55    30    29    1
    56    30    31    1
    57   150   151    1
    58   152   151    2
    59    51    50    1
    60   110   116    1
    61   115   116    1
    62    48    50   ar
    63    48    46   ar
    64   108   107    1
    65    31    32    2
    66    31    40   am
    67    50    49   ar
    68    46    45   ar
    69    40    41    1
    70    83    84   ar
    71    83    81   ar
    72    12    11    1
    73    84    82   ar
    74    57    56    1
    75    49    47   ar
    76   107   109    1
    77   107   104    1
    78    45    47   ar
    79    45    44    1
    80    81    79   ar
    81    11     9   ar
    82    11    10   ar
    83   104   105    1
    84   104   103    1
    85   105   106    2
    86    41    44    1
    87    41    42    1
    88     9     7   ar
    89    10     8   ar
    90    82    80   ar
    91    74    75    1
    92    56    53    1
    93    77    76    2
    94    52    53    1
    95    79    80   ar
    96    79    78    1
    97     7     6   ar
    98    42    43    2
    99     8     6   ar
   100    53    54    1
   101     6     5    1
   102    76    75    1
   103    75    78    1
   104   102   101   ar
   105   102   100   ar
   106    91    89    1
   107   101    99   ar
   108     5     2    1
   109    54    55    2
   110    89    90    1
   111    89    86    1
   112   100    98   ar
   113    19    18    1
   114    20    18    1
   115    85    86    1
   116    88    87    2
   117    99    97   ar
   118    86    87    1
   119    18    17    1
   120     2     1    1
   121     2     3    1
   122    98    97   ar
   123    72    71    1
   124    65    63    1
   125    97    96    1
   126     3     4    2
   127    73    71    1
   128    17    14    1
   129    71    70    1
   130    63    62    1
   131    63    64    1
   132    96    93    1
   133    58    59    1
   134    62    59    1
   135    14    13    1
   136    14    15    1
   137    70    67    1
   138    95    94    2
   139    92    93    1
   140    61    60    2
   141    93    94    1
   142    59    60    1
   143    15    16    2
   144    67    66    1
   145    67    68    1
   146    68    69    2
