@<TRIPOS>MOLECULE
tmp/1ohpB00.pdb
 131 122 0 0 0
SMALL
GASTEIGER

@<TRIPOS>ATOM
      1  N         -9.4210    9.8170   12.5470 N.3    18  LEU18      -0.1245
      2  CA        -8.7610   10.9470   11.8970 C.3    18  LEU18       0.1561
      3  C         -9.7620   11.7130   11.0420 C.2    18  LEU18       0.2260
      4  O         -9.8370   12.9400   11.1000 O.2    18  LEU18      -0.2867
      5  CB        -7.6220   10.4690   10.9980 C.3    18  LEU18       0.0270
      6  CG        -6.3010   10.0820   11.6550 C.3    18  LEU18       0.0019
      7  CD1       -5.3800    9.4770   10.6090 C.3    18  LEU18       0.0001
      8  CD2       -5.6630   11.3120   12.2820 C.3    18  LEU18       0.0001
      9  N          6.4710   10.3300   12.4160 N.3    38  ASN38      -0.1240
     10  CA         5.6850   10.8380   11.2980 C.3    38  ASN38       0.1653
     11  C          6.1790   12.2230   10.8830 C.2    38  ASN38       0.2266
     12  O          5.9700   13.2020   11.5950 O.2    38  ASN38      -0.2867
     13  CB         4.2210   10.9240   11.7410 C.3    38  ASN38       0.1155
     14  CG         3.2700   11.2360   10.6010 C.2    38  ASN38       0.2627
     15  OD1        3.6040   11.9730    9.6780 O.2    38  ASN38      -0.2716
     16  ND2        2.0640   10.6830   10.6750 N.am   38  ASN38      -0.0877
     17  N          0.8790   15.6510   18.9490 N.3    54  PHE54      -0.1241
     18  CA         1.0540   15.5080   17.5170 C.3    54  PHE54       0.1605
     19  C         -0.2770   15.4650   16.7810 C.2    54  PHE54       0.2264
     20  O         -0.4890   16.2010   15.8140 O.2    54  PHE54      -0.2867
     21  CB         1.8350   14.2390   17.1910 C.3    54  PHE54       0.0534
     22  CG         1.9980   14.0090   15.7190 C.ar   54  PHE54      -0.0203
     23  CD1        2.9010   14.7680   14.9850 C.ar   54  PHE54      -0.0042
     24  CD2        1.1980   13.0910   15.0530 C.ar   54  PHE54      -0.0042
     25  CE1        3.0010   14.6180   13.6030 C.ar   54  PHE54      -0.0003
     26  CE2        1.2900   12.9340   13.6700 C.ar   54  PHE54      -0.0003
     27  CZ         2.1910   13.7000   12.9490 C.ar   54  PHE54      -0.0000
     28  N         -2.2940   18.0940   14.1950 N.3    58  SER58      -0.1217
     29  CA        -2.6830   17.6670   12.8570 C.3    58  SER58       0.1889
     30  C         -4.1610   17.9530   12.6150 C.2    58  SER58       0.2288
     31  O         -4.5610   18.3600   11.5210 O.2    58  SER58      -0.2866
     32  CB        -2.4230   16.1690   12.6760 C.3    58  SER58       0.2089
     33  OG        -1.0350   15.8860   12.6310 O.3    58  SER58      -0.2183
     34  N         -9.4330   16.8800    8.1780 N.3    63  LEU63      -0.1245
     35  CA        -8.7350   15.9090    7.3540 C.3    63  LEU63       0.1561
     36  C         -9.6850   14.8750    6.7720 C.2    63  LEU63       0.2260
     37  O        -10.4910   14.2790    7.4880 O.2    63  LEU63      -0.2867
     38  CB        -7.6530   15.1920    8.1710 C.3    63  LEU63       0.0270
     39  CG        -6.5730   16.0550    8.8240 C.3    63  LEU63       0.0019
     40  CD1       -5.6210   15.1620    9.6060 C.3    63  LEU63       0.0001
     41  CD2       -5.8220   16.8500    7.7640 C.3    63  LEU63       0.0001
     42  N         -3.0770    4.8040    2.0960 N.3    82  PHE82      -0.1241
     43  CA        -4.2230    5.6950    2.2370 C.3    82  PHE82       0.1605
     44  C         -3.9040    7.1020    1.7470 C.2    82  PHE82       0.2264
     45  O         -2.7900    7.3810    1.3020 O.2    82  PHE82      -0.2867
     46  CB        -4.6540    5.7490    3.7110 C.3    82  PHE82       0.0534
     47  CG        -3.6110    6.3330    4.6380 C.ar   82  PHE82      -0.0203
     48  CD1       -3.8110    7.5750    5.2370 C.ar   82  PHE82      -0.0042
     49  CD2       -2.4350    5.6400    4.9140 C.ar   82  PHE82      -0.0042
     50  CE1       -2.8540    8.1180    6.1010 C.ar   82  PHE82      -0.0003
     51  CE2       -1.4720    6.1700    5.7710 C.ar   82  PHE82      -0.0003
     52  CZ        -1.6820    7.4150    6.3690 C.ar   82  PHE82      -0.0000
     53  N         -4.6160   11.4250    2.6560 N.3    84  VAL84      -0.1245
     54  CA        -5.0350   12.4340    3.6200 C.3    84  VAL84       0.1561
     55  C         -5.1960   13.7000    2.7890 C.2    84  VAL84       0.2260
     56  O         -4.2230   14.1980    2.2210 O.2    84  VAL84      -0.2867
     57  CB        -3.9590   12.6720    4.7010 C.3    84  VAL84       0.0252
     58  CG1       -4.4400   13.7270    5.6940 C.3    84  VAL84       0.0019
     59  CG2       -3.6530   11.3710    5.4220 C.3    84  VAL84       0.0019
     60  N         -6.6260   17.7600    2.4460 N.3    86  PHE86      -0.1241
     61  CA        -6.9390   18.9630    3.2070 C.3    86  PHE86       0.1605
     62  C         -6.5120   20.1890    2.4070 C.2    86  PHE86       0.2264
     63  O         -5.8650   20.0680    1.3680 O.2    86  PHE86      -0.2867
     64  CB        -6.1970   18.9190    4.5480 C.3    86  PHE86       0.0534
     65  CG        -4.7160   18.6840    4.4090 C.ar   86  PHE86      -0.0203
     66  CD1       -3.8250   19.7520    4.3580 C.ar   86  PHE86      -0.0042
     67  CD2       -4.2180   17.3910    4.2730 C.ar   86  PHE86      -0.0042
     68  CE1       -2.4590   19.5350    4.1710 C.ar   86  PHE86      -0.0003
     69  CE2       -2.8550   17.1640    4.0850 C.ar   86  PHE86      -0.0003
     70  CZ        -1.9760   18.2350    4.0330 C.ar   86  PHE86      -0.0000
     71  N         -4.2850   23.5220    2.4820 N.3    88  TYR88      -0.1241
     72  CA        -3.1910   24.1670    3.1950 C.3    88  TYR88       0.1605
     73  C         -2.6390   25.3290    2.3830 C.2    88  TYR88       0.2264
     74  O         -2.2960   25.1720    1.2100 O.2    88  TYR88      -0.2867
     75  CB        -2.0820   23.1450    3.4690 C.3    88  TYR88       0.0534
     76  CG        -0.8760   23.7070    4.1870 C.ar   88  TYR88      -0.0201
     77  CD1       -0.9890   24.2480    5.4670 C.ar   88  TYR88      -0.0009
     78  CD2        0.3840   23.6870    3.5890 C.ar   88  TYR88      -0.0009
     79  CE1        0.1240   24.7540    6.1340 C.ar   88  TYR88       0.0417
     80  CE2        1.5030   24.1920    4.2490 C.ar   88  TYR88       0.0417
     81  CZ         1.3640   24.7210    5.5220 C.ar   88  TYR88       0.1957
     82  OH         2.4670   25.2050    6.1870 O.3    88  TYR88      -0.2866
     83  N         -4.5450   19.9420   -1.0690 N.3    93  THR93      -0.1218
     84  CA        -3.3930   19.0700   -0.8880 C.3    93  THR93       0.1862
     85  C         -3.7870   17.6320   -0.5760 C.2    93  THR93       0.2287
     86  O         -4.6380   17.3780    0.2730 O.2    93  THR93      -0.2866
     87  CB        -2.4860   19.6000    0.2470 C.3    93  THR93       0.1770
     88  OG1       -2.1760   20.9810    0.0040 O.3    93  THR93      -0.2211
     89  CG2       -1.1930   18.8020    0.3150 C.3    93  THR93       0.0375
     90  N         -1.9990   13.9870    0.4060 N.3    95  VAL95      -0.1245
     91  CA        -0.7880   13.2630    0.7920 C.3    95  VAL95       0.1561
     92  C         -1.0910   11.7720    0.7610 C.2    95  VAL95       0.2260
     93  O         -2.1090   11.3350    1.2940 O.2    95  VAL95      -0.2867
     94  CB        -0.3350   13.6450    2.2140 C.3    95  VAL95       0.0252
     95  CG1        0.9680   12.9380    2.5520 C.3    95  VAL95       0.0019
     96  CG2       -0.1550   15.1530    2.3180 C.3    95  VAL95       0.0019
     97  N          0.5290    8.4820    2.0200 N.3    97  PRO97      -0.2116
     98  CA         1.5690    7.7380    2.7290 C.3    97  PRO97       0.1372
     99  C          1.2700    6.2450    2.7890 C.2    97  PRO97       0.2244
    100  O          0.2530    5.7680    2.2800 O.2    97  PRO97      -0.2868
    101  CB         1.5320    8.3380    4.1450 C.3    97  PRO97       0.0268
    102  CG         0.3270    9.3120    4.1580 C.3    97  PRO97       0.0207
    103  CD        -0.5020    8.9510    2.9550 C.3    97  PRO97       0.0892
    104  N          6.2000    8.7490    3.8970 N.3   116  PHE116     -0.1241
    105  CA         5.8080    9.5710    2.7660 C.3   116  PHE116      0.1605
    106  C          6.8800   10.6330    2.5820 C.2   116  PHE116      0.2264
    107  O          7.4500   11.1270    3.5590 O.2   116  PHE116     -0.2867
    108  CB         4.4250   10.2160    2.9740 C.3   116  PHE116      0.0534
    109  CG         4.3570   11.2070    4.1100 C.ar  116  PHE116     -0.0203
    110  CD1        4.1200   10.7810    5.4150 C.ar  116  PHE116     -0.0042
    111  CD2        4.4870   12.5730    3.8670 C.ar  116  PHE116     -0.0042
    112  CE1        4.0090   11.7010    6.4570 C.ar  116  PHE116     -0.0003
    113  CE2        4.3800   13.5010    4.9000 C.ar  116  PHE116     -0.0003
    114  CZ         4.1390   13.0640    6.2000 C.ar  116  PHE116     -0.0000
    115  N          8.4120   14.0200   -0.1900 N.3   118  GLU118     -0.1245
    116  CA         7.9330   15.1660   -0.9440 C.3   118  GLU118      0.1567
    117  C          7.1530   14.7830   -2.1950 C.2   118  GLU118      0.2260
    118  O          6.1900   15.4580   -2.5590 O.2   118  GLU118     -0.2867
    119  CB         9.1090   16.0730   -1.3170 C.3   118  GLU118      0.0388
    120  CG         9.8000   16.6970   -0.1140 C.3   118  GLU118      0.1160
    121  CD         8.8720   17.5780    0.7090 C.2   118  GLU118      0.3649
    122  OE1        9.2900   18.0310    1.7950 O.co2 118  GLU118     -0.2457
    123  OE2        7.7280   17.8220    0.2700 O.co2 118  GLU118     -0.2457
    124  N          3.4380   14.1870   -1.6470 N.3   121  ILE121     -0.1245
    125  CA         2.6710   15.3380   -1.1750 C.3   121  ILE121      0.1561
    126  C          2.2490   16.0860   -2.4360 C.2   121  ILE121      0.2260
    127  O          3.0710   16.6970   -3.1170 O.2   121  ILE121     -0.2867
    128  CB         3.5450   16.2340   -0.2780 C.3   121  ILE121      0.0252
    129  CG1        3.9280   15.4590    0.9870 C.3   121  ILE121      0.0019
    130  CG2        2.7990   17.5130    0.0900 C.3   121  ILE121      0.0019
    131  CD1        5.0320   16.1130    1.8070 C.3   121  ILE121      0.0001
@<TRIPOS>BOND
     1   127   126    2
     2   118   117    2
     3   126   125    1
     4   117   116    1
     5   124   125    1
     6   119   116    1
     7   119   120    1
     8   125   128    1
     9    83    84    1
    10   116   115    1
    11    84    85    1
    12    84    87    1
    13    85    86    2
    14   128   130    1
    15   128   129    1
    16   120   121    1
    17    88    87    1
    18    87    89    1
    19   123   121   ar
    20    90    91    1
    21   121   122   ar
    22    92    91    1
    23    92    93    2
    24    91    94    1
    25   129   131    1
    26    74    73    2
    27    45    44    2
    28    63    62    2
    29    44    43    1
    30    97    98    1
    31    97   103    1
    32    42    43    1
    33    94    96    1
    34    94    95    1
    35    56    55    2
    36    43    46    1
    37   100    99    2
    38    73    72    1
    39    62    61    1
    40    60    61    1
    41    71    72    1
    42   106   105    1
    43   106   107    2
    44    53    54    1
    45    98    99    1
    46    98   101    1
    47   105   108    1
    48   105   104    1
    49    55    54    1
    50   103   102    1
    51   108   109    1
    52    72    75    1
    53    61    64    1
    54    75    76    1
    55    78    76   ar
    56    78    80   ar
    57    54    57    1
    58    46    47    1
    59   111   109   ar
    60   111   113   ar
    61    70    69   ar
    62    70    68   ar
    63    69    67   ar
    64   109   110   ar
    65   101   102    1
    66    68    66   ar
    67    76    77   ar
    68    80    81   ar
    69    67    65   ar
    70    66    65   ar
    71    65    64    1
    72    47    49   ar
    73    47    48   ar
    74    57    59    1
    75    57    58    1
    76   113   114   ar
    77    49    51   ar
    78    48    50   ar
    79   110   112   ar
    80    77    79   ar
    81    81    79   ar
    82    81    82    1
    83    51    52   ar
    84    50    52   ar
    85   114   112   ar
    86    36    35    1
    87    36    37    2
    88    35    38    1
    89    35    34    1
    90    41    39    1
    91    38    39    1
    92    39    40    1
    93    15    14    2
    94    14    16   am
    95    14    13    1
    96     7     6    1
    97    11    10    1
    98    11    12    2
    99     5     6    1
   100     5     2    1
   101     3     4    2
   102     3     2    1
   103    10    13    1
   104    10     9    1
   105    31    30    2
   106     6     8    1
   107     2     1    1
   108    30    29    1
   109    33    32    1
   110    32    29    1
   111    29    28    1
   112    27    25   ar
   113    27    26   ar
   114    25    23   ar
   115    26    24   ar
   116    23    22   ar
   117    24    22   ar
   118    22    21    1
   119    20    19    2
   120    19    18    1
   121    21    18    1
   122    18    17    1
