@<TRIPOS>MOLECULE
tmp/1ohyB01.pdb
 89 83 0 0 0
SMALL
GASTEIGER

@<TRIPOS>ATOM
      1  N         28.1990    0.5500   43.6360 N.3    61  GLN61      -0.1231
      2  CA        26.8910    0.5250   42.9590 C.3    61  GLN61       0.1698
      3  C         26.5980   -0.8840   42.4840 C.2    61  GLN61       0.2592
      4  O         26.2820   -1.1410   41.3220 O.2    61  GLN61      -0.2718
      5  CB        26.8310    1.5190   41.8090 C.3    61  GLN61       0.0381
      6  CG        27.2950    2.9020   42.2130 C.3    61  GLN61       0.0905
      7  CD        26.3410    3.6100   43.1690 C.2    61  GLN61       0.2608
      8  OE1       25.1290    3.4470   43.0940 O.2    61  GLN61      -0.2717
      9  NE2       26.8980    4.4040   44.0680 N.am   61  GLN61      -0.0878
     10  N         26.7040   -1.7950   43.4330 N.am   62  ILE62      -0.1980
     11  CA        26.5280   -3.2160   43.1720 C.3    62  ILE62       0.1595
     12  C         27.4350   -3.6670   42.0360 C.2    62  ILE62       0.2287
     13  O         27.0130   -4.3620   41.1180 O.2    62  ILE62      -0.2864
     14  CB        25.0790   -3.5520   42.8080 C.3    62  ILE62       0.0276
     15  CG1       24.0830   -2.5880   43.4420 C.3    62  ILE62       0.0022
     16  CG2       24.7730   -4.9570   43.2600 C.3    62  ILE62       0.0022
     17  CD1       22.6480   -2.8830   43.0330 C.3    62  ILE62       0.0001
     18  N         29.1860   -1.9380   39.6440 N.3    64  SER64      -0.1217
     19  CA        28.9630   -1.3570   38.3180 C.3    64  SER64       0.1889
     20  C         29.8200   -0.1350   38.0170 C.2    64  SER64       0.2288
     21  O         29.7410    0.4250   36.9280 O.2    64  SER64      -0.2866
     22  CB        27.4910   -1.0240   38.1310 C.3    64  SER64       0.2089
     23  OG        27.0630   -0.0490   39.0580 O.3    64  SER64      -0.2183
     24  N         21.4750  -15.8830   39.4820 N.3   179  PHE179     -0.1241
     25  CA        20.8240  -14.6420   39.1980 C.3   179  PHE179      0.1605
     26  C         21.2830  -14.0720   37.8580 C.2   179  PHE179      0.2264
     27  O         22.4670  -13.7910   37.6460 O.2   179  PHE179     -0.2867
     28  CB        21.0670  -13.6560   40.3120 C.3   179  PHE179      0.0534
     29  CG        20.2250  -12.4480   40.1860 C.ar  179  PHE179     -0.0203
     30  CD1       20.5340  -11.4910   39.2360 C.ar  179  PHE179     -0.0042
     31  CD2       19.0840  -12.3010   40.9520 C.ar  179  PHE179     -0.0042
     32  CE1       19.7520  -10.3890   39.0810 C.ar  179  PHE179     -0.0003
     33  CE2       18.2900  -11.1920   40.8080 C.ar  179  PHE179     -0.0003
     34  CZ        18.6230  -10.2260   39.8660 C.ar  179  PHE179     -0.0000
     35  N         15.7820  -10.0170   35.8520 N.3   182  ARG182     -0.1245
     36  CA        14.4110  -10.0840   36.3770 C.3   182  ARG182      0.1563
     37  C         13.2830   -9.8870   35.3830 C.2   182  ARG182      0.2260
     38  O         12.1160   -9.9930   35.7590 O.2   182  ARG182     -0.2867
     39  CB        14.2190   -9.0440   37.4670 C.3   182  ARG182      0.0307
     40  CG        15.0410   -9.2230   38.7160 C.3   182  ARG182      0.0489
     41  CD        15.0900   -7.9050   39.4330 C.3   182  ARG182      0.2205
     42  NE        15.7380   -7.8660   40.7330 N.pl3 182  ARG182     -0.0865
     43  CZ        15.1760   -8.2450   41.8720 C.cat 182  ARG182      0.5346
     44  NH1       13.9500   -8.7650   41.8830 N.pl3 182  ARG182      0.1354
     45  NH2       15.8520   -8.1160   43.0050 N.pl3 182  ARG182      0.1354
     46  N         12.2490  -12.1890   44.8950 N.3   196  HIS196     -0.1241
     47  CA        12.5160  -11.8410   43.4840 C.3   196  HIS196      0.1621
     48  C         11.6230  -12.5730   42.4990 C.2   196  HIS196      0.2264
     49  O         11.4150  -12.0930   41.3900 O.2   196  HIS196     -0.2867
     50  CB        13.9320  -12.1840   43.0220 C.3   196  HIS196      0.0745
     51  CG        15.0200  -11.6300   43.9210 C.ar  196  HIS196      0.0817
     52  ND1       16.3780  -12.1990   44.0060 N.ar  196  HIS196     -0.2268
     53  CD2       14.9970  -10.6090   44.8080 C.ar  196  HIS196      0.1154
     54  CE1       17.1440  -11.5330   44.8930 C.ar  196  HIS196      0.1986
     55  NE2       16.3210  -10.5630   45.4000 N.ar  196  HIS196     -0.2212
     56  N         24.4710  -12.6270   43.5340 N.3   260  GLU260     -0.1245
     57  CA        23.2990  -12.3140   44.3730 C.3   260  GLU260      0.1567
     58  C         22.8760  -13.5010   45.2200 C.2   260  GLU260      0.2260
     59  O         22.3910  -13.3380   46.3350 O.2   260  GLU260     -0.2867
     60  CB        22.0950  -11.8820   43.5300 C.3   260  GLU260      0.0388
     61  CG        22.3200  -10.6810   42.6330 C.3   260  GLU260      0.1160
     62  CD        23.0650   -9.5570   43.3170 C.2   260  GLU260      0.3649
     63  OE1       22.6620   -9.1680   44.4430 O.co2 260  GLU260     -0.2457
     64  OE2       24.0520   -9.0670   42.7140 O.co2 260  GLU260     -0.2457
     65  N         28.0900  -10.6900   33.6160 N.3   290  VAL290     -0.1231
     66  CA        27.5310   -9.3800   33.9170 C.3   290  VAL290      0.1692
     67  C         28.1100   -8.7640   35.1940 C.2   290  VAL290      0.2591
     68  O         28.4020   -7.5690   35.2330 O.2   290  VAL290     -0.2718
     69  CB        26.0130   -9.4430   34.0170 C.3   290  VAL290      0.0266
     70  CG1       25.4820   -8.2570   34.7930 C.3   290  VAL290      0.0020
     71  CG2       25.4220   -9.4970   32.6170 C.3   290  VAL290      0.0020
     72  N         28.2680   -9.5710   36.2330 N.am  291  GLN291     -0.1979
     73  CA        28.8180   -9.0550   37.4930 C.3   291  GLN291      0.1601
     74  C         30.3070   -9.3840   37.6490 C.2   291  GLN291      0.2287
     75  O         31.0850   -8.5410   38.0920 O.2   291  GLN291     -0.2864
     76  CB        28.0160   -9.5280   38.7120 C.3   291  GLN291      0.0394
     77  CG        28.4450   -8.8200   39.9980 C.3   291  GLN291      0.0908
     78  CD        27.4280   -8.8830   41.1230 C.2   291  GLN291      0.2608
     79  OE1       27.7680   -8.5810   42.2580 O.2   291  GLN291     -0.2717
     80  NE2       26.1920   -9.2510   40.8160 N.am  291  GLN291     -0.0878
     81  N         27.0360   -3.7530   33.4600 N.3   319  LYS319     -0.1245
     82  CA        27.5080   -3.1780   34.7200 C.3   319  LYS319      0.1561
     83  C         28.8000   -2.3990   34.5560 C.2   319  LYS319      0.2260
     84  O         28.7970   -1.2900   34.0360 O.2   319  LYS319     -0.2867
     85  CB        27.6130   -4.2670   35.7840 C.3   319  LYS319      0.0271
     86  CG        26.2300   -4.6080   36.2600 C.3   319  LYS319      0.0035
     87  CD        26.1460   -5.7510   37.2120 C.3   319  LYS319      0.0206
     88  CE        24.6770   -6.1020   37.4310 C.3   319  LYS319      0.1093
     89  NZ        24.5130   -7.1050   38.5030 N.3   319  LYS319     -0.1314
@<TRIPOS>BOND
     1    71    69    1
     2    81    82    1
     3    65    66    1
     4    66    69    1
     5    66    67    1
     6    69    70    1
     7    84    83    2
     8    83    82    1
     9    82    85    1
    10    67    68    2
    11    67    72   am
    12    37    38    2
    13    37    36    1
    14    85    86    1
    15    35    36    1
    16    72    73    1
    17    86    87    1
    18    36    39    1
    19    21    20    2
    20    87    88    1
    21    88    89    1
    22    39    40    1
    23    73    74    1
    24    73    76    1
    25    27    26    2
    26    74    75    2
    27    26    25    1
    28    20    19    1
    29    22    19    1
    30    22    23    1
    31    19    18    1
    32    76    77    1
    33    40    41    1
    34    32    30   ar
    35    32    34   ar
    36    25    24    1
    37    25    28    1
    38    30    29   ar
    39    41    42    1
    40    34    33   ar
    41    77    78    1
    42    29    28    1
    43    29    31   ar
    44    42    43    2
    45    33    31   ar
    46    80    78   am
    47    13    12    2
    48    78    79    2
    49     4     3    2
    50    49    48    2
    51     5     6    1
    52     5     2    1
    53    43    44    1
    54    43    45    1
    55    12    11    1
    56     6     7    1
    57     3     2    1
    58     3    10   am
    59    48    47    1
    60    61    62    1
    61    61    60    1
    62    64    62   ar
    63    14    11    1
    64    14    16    1
    65    14    15    1
    66     2     1    1
    67    50    47    1
    68    50    51    1
    69    17    15    1
    70     8     7    2
    71     7     9   am
    72    11    10    1
    73    62    63   ar
    74    47    46    1
    75    60    57    1
    76    56    57    1
    77    51    52   ar
    78    51    53   ar
    79    52    54   ar
    80    57    58    1
    81    53    55   ar
    82    54    55   ar
    83    58    59    2
