@<TRIPOS>MOLECULE
tmp/1oi9C00.pdb
 175 167 0 0 0
SMALL
GASTEIGER

@<TRIPOS>ATOM
      1  N         23.2320   88.0540   42.6720 N.3     9  GLU9       -0.1245
      2  CA        23.8750   88.6830   41.5270 C.3     9  GLU9        0.1567
      3  C         24.8390   87.6600   40.9400 C.2     9  GLU9        0.2260
      4  O         25.3160   86.7640   41.6540 O.2     9  GLU9       -0.2867
      5  CB        24.6370   89.9560   41.9560 C.3     9  GLU9        0.0388
      6  CG        25.8260   89.6800   42.8670 C.3     9  GLU9        0.1160
      7  CD        26.3300   90.8770   43.6620 C.2     9  GLU9        0.3649
      8  OE1       25.5520   91.8130   43.9580 O.co2   9  GLU9       -0.2457
      9  OE2       27.5270   90.8520   44.0290 O.co2   9  GLU9       -0.2457
     10  N         28.4680   86.6680   39.6000 N.3    11  ILE11      -0.1231
     11  CA        29.7790   87.1480   40.0020 C.3    11  ILE11       0.1692
     12  C         30.7490   87.1790   38.8170 C.2    11  ILE11       0.2593
     13  O         31.4250   88.1840   38.5940 O.2    11  ILE11      -0.2718
     14  CB        30.3670   86.3090   41.1510 C.3    11  ILE11       0.0266
     15  CG1       29.4560   86.3590   42.3900 C.3    11  ILE11       0.0019
     16  CG2       31.7670   86.8000   41.4620 C.3    11  ILE11       0.0020
     17  CD1       29.8470   85.3630   43.4940 C.3    11  ILE11       0.0001
     18  N         30.8040   86.0740   38.0780 N.am   12  GLY12      -0.1942
     19  CA        31.6600   85.9420   36.9170 C.3    12  GLY12       0.2014
     20  C         31.7030   84.5120   36.4160 C.2    12  GLY12       0.2639
     21  O         31.0310   83.6380   36.9540 O.2    12  GLY12      -0.2714
     22  N         32.5040   84.2810   35.3840 N.am   13  GLU13      -0.1963
     23  CA        32.7070   82.9610   34.7920 C.3    13  GLU13       0.1733
     24  C         34.1810   82.6060   34.8450 C.2    13  GLU13       0.2616
     25  O         35.0120   83.3640   34.3610 O.2    13  GLU13      -0.2715
     26  CB        32.2370   82.9560   33.3290 C.3    13  GLU13       0.0429
     27  CG        30.7660   83.3250   33.1550 C.3    13  GLU13       0.1163
     28  CD        30.3480   83.5280   31.7040 C.2    13  GLU13       0.3649
     29  OE1       30.8680   82.8300   30.8040 O.co2  13  GLU13      -0.2457
     30  OE2       29.4710   84.3840   31.4750 O.co2  13  GLU13      -0.2457
     31  N         34.5100   81.4660   35.4390 N.am   14  GLY14      -0.1955
     32  CA        35.8910   81.0350   35.5450 C.3    14  GLY14       0.1869
     33  C         36.2500   80.0540   34.4530 C.2    14  GLY14       0.2309
     34  O         35.8360   80.2300   33.3090 O.2    14  GLY14      -0.2863
     35  N         29.4430   81.4090   38.2910 N.3    19  VAL19      -0.1245
     36  CA        29.3460   81.5700   39.7300 C.3    19  VAL19       0.1561
     37  C         28.3960   82.7240   40.0250 C.2    19  VAL19       0.2260
     38  O         28.5470   83.8200   39.4740 O.2    19  VAL19      -0.2867
     39  CB        30.7310   81.8600   40.3580 C.3    19  VAL19       0.0252
     40  CG1       30.6010   82.1070   41.8470 C.3    19  VAL19       0.0019
     41  CG2       31.7110   80.7170   40.0840 C.3    19  VAL19       0.0019
     42  N         28.6120   81.2760   47.4060 N.3    32  ALA32      -0.1245
     43  CA        28.9300   81.2960   45.9940 C.3    32  ALA32       0.1562
     44  C         28.4460   80.0060   45.3610 C.2    32  ALA32       0.2260
     45  O         28.9080   78.9060   45.7160 O.2    32  ALA32      -0.2867
     46  CB        30.4170   81.4160   45.8000 C.3    32  ALA32       0.0290
     47  N         39.5950   77.5470   49.2740 N.3    65  VAL65      -0.1245
     48  CA        38.1760   77.8460   49.3350 C.3    65  VAL65       0.1561
     49  C         37.3740   76.5640   49.7110 C.2    65  VAL65       0.2260
     50  O         37.6970   75.4670   49.2790 O.2    65  VAL65      -0.2867
     51  CB        37.6750   78.4810   48.0290 C.3    65  VAL65       0.0252
     52  CG1       37.7360   77.4860   46.8890 C.3    65  VAL65       0.0019
     53  CG2       36.2900   79.0390   48.2210 C.3    65  VAL65       0.0019
     54  N         29.7680   76.9500   47.5250 N.3    81  PHE81      -0.1227
     55  CA        31.0320   77.3350   48.1430 C.3    81  PHE81       0.1736
     56  C         30.7790   78.3580   49.2260 C.2    81  PHE81       0.2595
     57  O         29.7990   79.0890   49.1700 O.2    81  PHE81      -0.2718
     58  CB        31.9600   77.9950   47.1170 C.3    81  PHE81       0.0547
     59  CG        32.5160   77.0600   46.0850 C.ar   81  PHE81      -0.0202
     60  CD1       31.9420   76.9840   44.8250 C.ar   81  PHE81      -0.0042
     61  CD2       33.6480   76.3050   46.3500 C.ar   81  PHE81      -0.0042
     62  CE1       32.4800   76.1640   43.8560 C.ar   81  PHE81      -0.0003
     63  CE2       34.1780   75.4750   45.3980 C.ar   81  PHE81      -0.0003
     64  CZ        33.5970   75.3940   44.1480 C.ar   81  PHE81      -0.0000
     65  N         31.6750   78.4410   50.1930 N.am   82  GLU82      -0.1965
     66  CA        31.7560   79.6410   51.0100 C.3    82  GLU82       0.1733
     67  C         31.9500   80.8750   50.0780 C.2    82  GLU82       0.2616
     68  O         32.6610   80.7970   49.0690 O.2    82  GLU82      -0.2715
     69  CB        32.9270   79.5380   52.0230 C.3    82  GLU82       0.0429
     70  CG        34.3000   79.5910   51.3530 C.3    82  GLU82       0.1163
     71  CD        35.4660   79.6130   52.3210 C.2    82  GLU82       0.3649
     72  OE1       35.3700   80.2840   53.3440 O.co2  82  GLU82      -0.2457
     73  OE2       36.4940   78.9570   52.0500 O.co2  82  GLU82      -0.2457
     74  N         31.2980   81.9750   50.4270 N.am   83  PHE83      -0.1960
     75  CA        31.4150   83.2450   49.7250 C.3    83  PHE83       0.1771
     76  C         32.5370   84.1090   50.3120 C.2    83  PHE83       0.2619
     77  O         32.5960   84.3070   51.5260 O.2    83  PHE83      -0.2715
     78  CB        30.0890   84.0060   49.8240 C.3    83  PHE83       0.0574
     79  CG        30.1000   85.3560   49.1350 C.ar   83  PHE83      -0.0200
     80  CD1       30.0400   85.4480   47.7360 C.ar   83  PHE83      -0.0042
     81  CD2       30.1500   86.5360   49.8830 C.ar   83  PHE83      -0.0042
     82  CE1       30.0390   86.7030   47.0950 C.ar   83  PHE83      -0.0003
     83  CE2       30.1490   87.7920   49.2450 C.ar   83  PHE83      -0.0003
     84  CZ        30.0910   87.8640   47.8410 C.ar   83  PHE83      -0.0000
     85  N         33.4210   84.6180   49.4560 N.am   84  LEU84      -0.1963
     86  CA        34.4170   85.5990   49.8960 C.3    84  LEU84       0.1728
     87  C         34.1500   86.9930   49.2970 C.2    84  LEU84       0.2616
     88  O         33.5590   87.1120   48.2250 O.2    84  LEU84      -0.2715
     89  CB        35.8430   85.0980   49.6320 C.3    84  LEU84       0.0311
     90  CG        36.3110   84.0280   50.6400 C.3    84  LEU84       0.0022
     91  CD1       37.1030   82.9370   49.9630 C.3    84  LEU84       0.0001
     92  CD2       37.1150   84.6310   51.7470 C.3    84  LEU84       0.0001
     93  N         34.5570   88.0380   50.0100 N.am   85  HIS85      -0.1959
     94  CA        34.2080   89.4070   49.6500 C.3    85  HIS85       0.1787
     95  C         34.6450   89.8080   48.2370 C.2    85  HIS85       0.2620
     96  O         33.8720   90.4450   47.5250 O.2    85  HIS85      -0.2715
     97  CB        34.7330   90.4080   50.6960 C.3    85  HIS85       0.0785
     98  CG        34.3110   91.8230   50.4450 C.ar   85  HIS85       0.0821
     99  ND1       35.0820   92.7140   49.7240 N.ar   85  HIS85      -0.2267
    100  CD2       33.1940   92.5000   50.8060 C.ar   85  HIS85       0.1154
    101  CE1       34.4590   93.8780   49.6530 C.ar   85  HIS85       0.1986
    102  NE2       33.3100   93.7740   50.3010 N.ar   85  HIS85      -0.2212
    103  N         35.8610   89.4340   47.8290 N.am   86  GLN86      -0.1963
    104  CA        36.3300   89.7550   46.4760 C.3    86  GLN86       0.1733
    105  C         37.6030   89.0400   46.0620 C.2    86  GLN86       0.2616
    106  O         38.2110   88.3480   46.8640 O.2    86  GLN86      -0.2715
    107  CB        36.4910   91.2720   46.3040 C.3    86  GLN86       0.0408
    108  CG        37.6430   91.8690   47.0650 C.3    86  GLN86       0.0908
    109  CD        37.9070   93.3020   46.6460 C.2    86  GLN86       0.2608
    110  OE1       38.4330   93.5540   45.5630 O.2    86  GLN86      -0.2717
    111  NE2       37.5090   94.2340   47.4790 N.am   86  GLN86      -0.0878
    112  N         37.9950   89.2030   44.8000 N.am   87  ASP87      -0.1971
    113  CA        39.2240   88.5960   44.3130 C.3    87  ASP87       0.1709
    114  C         40.4220   89.5540   44.4270 C.2    87  ASP87       0.2293
    115  O         40.2400   90.7530   44.6510 O.2    87  ASP87      -0.2864
    116  CB        39.0530   88.0210   42.8940 C.3    87  ASP87       0.1436
    117  CG        38.7830   89.0900   41.8430 C.2    87  ASP87       0.3671
    118  OD1       39.7770   89.6220   41.3010 O.co2  87  ASP87      -0.2456
    119  OD2       37.6300   89.4460   41.4790 O.co2  87  ASP87      -0.2456
    120  N         40.7260   92.6440   41.7940 N.3    90  LYS90      -0.1245
    121  CA        39.8350   93.7530   42.1100 C.3    90  LYS90       0.1561
    122  C         40.3610   94.6070   43.2730 C.2    90  LYS90       0.2260
    123  O         40.2590   95.8440   43.2540 O.2    90  LYS90      -0.2867
    124  CB        38.4230   93.2380   42.3930 C.3    90  LYS90       0.0271
    125  CG        37.3100   94.2420   42.1080 C.3    90  LYS90       0.0035
    126  CD        35.9220   93.6660   42.4220 C.3    90  LYS90       0.0206
    127  CE        35.4720   94.0000   43.8540 C.3    90  LYS90       0.1093
    128  NZ        34.1170   93.4350   44.1930 N.3    90  LYS90      -0.1314
    129  N         46.2320   82.9810   39.5360 N.3   130  LYS130     -0.1245
    130  CA        46.1840   84.3310   39.0290 C.3   130  LYS130      0.1561
    131  C         45.3800   85.0710   40.0540 C.2   130  LYS130      0.2260
    132  O         44.6050   84.4480   40.7810 O.2   130  LYS130     -0.2867
    133  CB        45.5320   84.4140   37.6350 C.3   130  LYS130      0.0271
    134  CG        44.1580   83.7480   37.4570 C.3   130  LYS130      0.0035
    135  CD        43.7990   83.6700   35.9610 C.3   130  LYS130      0.0206
    136  CE        42.3250   83.3090   35.7290 C.3   130  LYS130      0.1093
    137  NZ        41.6430   84.2400   34.7790 N.3   130  LYS130     -0.1314
    138  N         42.8460   86.6490   39.8890 N.3   132  GLN132     -0.1231
    139  CA        41.4000   86.5380   39.6880 C.3   132  GLN132      0.1698
    140  C         40.8800   85.3400   40.4830 C.2   132  GLN132      0.2592
    141  O         39.7410   85.3500   40.9510 O.2   132  GLN132     -0.2718
    142  CB        41.0410   86.3990   38.1960 C.3   132  GLN132      0.0381
    143  CG        41.4790   87.5710   37.3090 C.3   132  GLN132      0.0905
    144  CD        43.0010   87.6730   37.1560 C.2   132  GLN132      0.2608
    145  OE1       43.6100   86.9140   36.4070 O.2   132  GLN132     -0.2717
    146  NE2       43.6100   88.5840   37.9020 N.am  132  GLN132     -0.0878
    147  N         41.7500   84.3380   40.6280 N.am  133  ASN133     -0.1974
    148  CA        41.4610   83.0640   41.2780 C.3   133  ASN133      0.1688
    149  C         41.8540   82.9890   42.7650 C.2   133  ASN133      0.2292
    150  O         41.8310   81.9040   43.3630 O.2   133  ASN133     -0.2864
    151  CB        42.1520   81.9260   40.5080 C.3   133  ASN133      0.1181
    152  CG        41.5320   81.6830   39.1360 C.2   133  ASN133      0.2629
    153  OD1       40.5220   82.2870   38.7860 O.2   133  ASN133     -0.2716
    154  ND2       42.1490   80.8040   38.3530 N.am  133  ASN133     -0.0877
    155  N         41.0020   84.7250   46.4950 N.3   135  LEU135     -0.1245
    156  CA        39.8900   85.4500   47.0790 C.3   135  LEU135      0.1561
    157  C         40.1970   85.8530   48.4990 C.2   135  LEU135      0.2260
    158  O         40.8110   85.0850   49.2430 O.2   135  LEU135     -0.2867
    159  CB        38.6290   84.5760   47.0400 C.3   135  LEU135      0.0270
    160  CG        38.2950   83.8740   45.7150 C.3   135  LEU135      0.0019
    161  CD1       36.9470   83.2340   45.7940 C.3   135  LEU135      0.0001
    162  CD2       38.3430   84.8310   44.5240 C.3   135  LEU135      0.0001
    163  N         41.3180   79.4910   44.9070 N.3   145  ALA145     -0.1231
    164  CA        39.9950   79.2200   44.3500 C.3   145  ALA145      0.1694
    165  C         40.0600   78.9010   42.8640 C.2   145  ALA145      0.2592
    166  O         41.1270   78.9940   42.2350 O.2   145  ALA145     -0.2718
    167  CB        39.0570   80.3870   44.6030 C.3   145  ALA145      0.0304
    168  N         38.8920   78.5540   42.3230 N.am  146  ASP146     -0.1974
    169  CA        38.7260   77.9900   40.9860 C.3   146  ASP146      0.1709
    170  C         39.7570   76.9180   40.6960 C.2   146  ASP146      0.2293
    171  O         40.8100   77.1840   40.0950 O.2   146  ASP146     -0.2864
    172  CB        38.7020   79.0800   39.9100 C.3   146  ASP146      0.1436
    173  CG        38.2710   78.5550   38.5450 C.2   146  ASP146      0.3671
    174  OD1       38.2970   77.3170   38.3360 O.co2 146  ASP146     -0.2456
    175  OD2       37.9030   79.3180   37.6210 O.co2 146  ASP146     -0.2456
@<TRIPOS>BOND
     1    29    28   ar
     2    30    28   ar
     3    28    27    1
     4    27    26    1
     5    34    33    2
     6    26    23    1
     7    25    24    2
     8    33    32    1
     9   137   136    1
    10    23    24    1
    11    23    22    1
    12    24    31   am
    13    22    20   am
    14    31    32    1
    15   136   135    1
    16   135   134    1
    17   145   144    2
    18    20    19    1
    19    20    21    2
    20    19    18    1
    21   144   143    1
    22   144   146   am
    23   143   142    1
    24   134   133    1
    25   175   173   ar
    26   133   130    1
    27    18    12   am
    28   142   139    1
    29    35    36    1
    30   174   173   ar
    31   154   152   am
    32   173   172    1
    33    13    12    2
    34   153   152    2
    35    12    11    1
    36   130   129    1
    37   130   131    1
    38   152   151    1
    39    38    37    2
    40    10    11    1
    41   139   138    1
    42   139   140    1
    43    36    37    1
    44    36    39    1
    45   172   169    1
    46    11    14    1
    47   131   132    2
    48    41    39    1
    49   171   170    2
    50    39    40    1
    51   140   147   am
    52   140   141    2
    53   151   148    1
    54   147   148    1
    55   170   169    1
    56     3     2    1
    57     3     4    2
    58   169   168    1
    59    14    16    1
    60    14    15    1
    61   148   149    1
    62   118   117   ar
    63   119   117   ar
    64     2     5    1
    65     2     1    1
    66   120   121    1
    67   117   116    1
    68     5     6    1
    69   125   124    1
    70   125   126    1
    71   121   124    1
    72   121   122    1
    73   166   165    2
    74   168   165   am
    75    15    17    1
    76   126   127    1
    77   149   150    2
    78   165   164    1
    79     6     7    1
    80   116   113    1
    81   123   122    2
    82     7     8   ar
    83     7     9   ar
    84   127   128    1
    85    62    64   ar
    86    62    60   ar
    87    64    63   ar
    88   113   114    1
    89   113   112    1
    90   164   167    1
    91   164   163    1
    92   114   115    2
    93   162   160    1
    94   112   105   am
    95    60    59   ar
    96    44    45    2
    97    44    43    1
    98    63    61   ar
    99   110   109    2
   100   160   161    1
   101   160   159    1
   102    46    43    1
   103    43    42    1
   104   105   104    1
   105   105   106    2
   106    59    61   ar
   107    59    58    1
   108   107   104    1
   109   107   108    1
   110   104   103    1
   111   155   156    1
   112   109   108    1
   113   109   111   am
   114    52    51    1
   115   159   156    1
   116   156   157    1
   117    82    80   ar
   118    82    84   ar
   119    58    55    1
   120    54    55    1
   121    96    95    2
   122    80    79   ar
   123   103    95   am
   124    84    83   ar
   125    51    53    1
   126    51    48    1
   127    55    56    1
   128    88    87    2
   129    95    94    1
   130   157   158    2
   131    68    67    2
   132    79    78    1
   133    79    81   ar
   134    57    56    2
   135    56    65   am
   136    83    81   ar
   137    47    48    1
   138    50    49    2
   139    87    86    1
   140    87    93   am
   141    48    49    1
   142    85    86    1
   143    85    76   am
   144    89    86    1
   145    89    90    1
   146    94    93    1
   147    94    97    1
   148   101    99   ar
   149   101   102   ar
   150    99    98   ar
   151    75    78    1
   152    75    76    1
   153    75    74    1
   154    91    90    1
   155    67    74   am
   156    67    66    1
   157    65    66    1
   158   102   100   ar
   159    76    77    2
   160    98    97    1
   161    98   100   ar
   162    90    92    1
   163    66    69    1
   164    70    69    1
   165    70    71    1
   166    73    71   ar
   167    71    72   ar
