@<TRIPOS>MOLECULE
tmp/1oijC00.pdb
 107 100 0 0 0
SMALL
GASTEIGER

@<TRIPOS>ATOM
      1  N         23.2500   69.4930   12.1680 N.3    68  ARG68      -0.1231
      2  CA        22.6980   70.3380   13.2570 C.3    68  ARG68       0.1694
      3  C         23.4390   70.2650   14.6440 C.2    68  ARG68       0.2591
      4  O         22.9100   69.7360   15.6530 O.2    68  ARG68      -0.2718
      5  CB        21.1700   70.1570   13.3740 C.3    68  ARG68       0.0321
      6  CG        20.4050   71.4050   12.9760 C.3    68  ARG68       0.0489
      7  CD        19.1930   71.2300   12.0670 C.3    68  ARG68       0.2205
      8  NE        18.2880   72.3160   12.3980 N.pl3  68  ARG68      -0.0865
      9  CZ        17.4050   72.9350   11.6010 C.cat  68  ARG68       0.5346
     10  NH1       17.2180   72.5760   10.3260 N.pl3  68  ARG68       0.1354
     11  NH2       16.6910   73.9400   12.1240 N.pl3  68  ARG68       0.1354
     12  N         24.6450   70.8520   14.6670 N.am   69  ALA69      -0.1980
     13  CA        25.6700   70.6560   15.7050 C.3    69  ALA69       0.1597
     14  C         25.6860   71.7720   16.7910 C.2    69  ALA69       0.2287
     15  O         26.6920   72.4830   16.9800 O.2    69  ALA69      -0.2864
     16  CB        27.0260   70.5780   15.0260 C.3    69  ALA69       0.0319
     17  N         32.1580   71.7070   20.7190 N.3    73  HIS73      -0.1241
     18  CA        33.0650   70.5810   20.4830 C.3    73  HIS73       0.1621
     19  C         34.2580   71.0070   19.6710 C.2    73  HIS73       0.2264
     20  O         34.2350   72.0270   18.9750 O.2    73  HIS73      -0.2867
     21  CB        32.3280   69.4220   19.7520 C.3    73  HIS73       0.0745
     22  CG        31.8510   69.8070   18.3920 C.ar   73  HIS73       0.0817
     23  ND1       30.8170   70.7120   18.2020 N.ar   73  HIS73      -0.2268
     24  CD2       32.3020   69.4810   17.1580 C.ar   73  HIS73       0.1154
     25  CE1       30.6300   70.8980   16.9100 C.ar   73  HIS73       0.1986
     26  NE2       31.5250   70.1770   16.2540 N.ar   73  HIS73      -0.2212
     27  N         36.5340   69.1870   16.6400 N.3    75  ASP75      -0.1239
     28  CA        36.1110   68.2090   15.6390 C.3    75  ASP75       0.1674
     29  C         36.8080   66.8720   15.8370 C.2    75  ASP75       0.2266
     30  O         38.0190   66.8240   15.9560 O.2    75  ASP75      -0.2867
     31  CB        36.3930   68.7170   14.2300 C.3    75  ASP75       0.1410
     32  CG        35.5330   69.9090   13.8710 C.2    75  ASP75       0.3668
     33  OD1       34.3240   69.9310   14.1870 O.co2  75  ASP75      -0.2456
     34  OD2       35.9640   70.8560   13.2340 O.co2  75  ASP75      -0.2456
     35  N         35.0980   75.9850    5.5610 N.3    88  LEU88      -0.1245
     36  CA        33.6630   75.8520    5.4920 C.3    88  LEU88       0.1561
     37  C         33.0900   77.0270    4.7690 C.2    88  LEU88       0.2260
     38  O         33.3060   78.1850    5.1790 O.2    88  LEU88      -0.2867
     39  CB        33.0570   75.8320    6.8960 C.3    88  LEU88       0.0270
     40  CG        31.5620   75.5280    7.0150 C.3    88  LEU88       0.0019
     41  CD1       31.2770   74.1040    6.5610 C.3    88  LEU88       0.0001
     42  CD2       31.0760   75.7320    8.4350 C.3    88  LEU88       0.0001
     43  N         27.3820   80.6250   13.5870 N.3   100  THR100     -0.1218
     44  CA        28.3270   79.7140   14.2160 C.3   100  THR100      0.1862
     45  C         29.1500   80.5030   15.1690 C.2   100  THR100      0.2287
     46  O         29.4950   81.6310   14.8630 O.2   100  THR100     -0.2866
     47  CB        29.2510   79.1020   13.1420 C.3   100  THR100      0.1770
     48  OG1       28.3950   78.4020   12.2320 O.3   100  THR100     -0.2211
     49  CG2       30.1380   77.9820   13.7380 C.3   100  THR100      0.0375
     50  N         39.1680   77.4710   10.4730 N.3   196  TRP196     -0.1241
     51  CA        39.5370   77.5260   11.8890 C.3   196  TRP196      0.1605
     52  C         40.5880   76.5080   12.2540 C.2   196  TRP196      0.2264
     53  O         40.7010   75.4750   11.5900 O.2   196  TRP196     -0.2867
     54  CB        38.3200   77.3670   12.8170 C.3   196  TRP196      0.0550
     55  CG        37.5910   76.0340   12.7700 C.ar  196  TRP196      0.0003
     56  CD1       37.7950   74.9270   13.5870 C.ar  196  TRP196      0.0946
     57  CD2       36.4990   75.6810   11.9020 C.ar  196  TRP196      0.0152
     58  NE1       36.9030   73.9210   13.2600 N.ar  196  TRP196     -0.2442
     59  CE2       36.0890   74.3630   12.2410 C.ar  196  TRP196      0.0810
     60  CE3       35.8230   76.3540   10.8660 C.ar  196  TRP196      0.0012
     61  CZ2       35.0370   73.7130   11.5990 C.ar  196  TRP196      0.0191
     62  CZ3       34.7700   75.7250   10.2360 C.ar  196  TRP196      0.0001
     63  CH2       34.3780   74.3960   10.6050 C.ar  196  TRP196      0.0015
     64  N         33.7750   74.9020   18.4410 N.3   203  HIS203     -0.1241
     65  CA        32.7080   75.6780   17.8130 C.3   203  HIS203      0.1621
     66  C         31.3250   75.0820   18.0970 C.2   203  HIS203      0.2264
     67  O         31.1790   73.9310   18.6110 O.2   203  HIS203     -0.2867
     68  CB        32.9130   75.8100   16.2890 C.3   203  HIS203      0.0745
     69  CG        33.0330   74.5010   15.5860 C.ar  203  HIS203      0.0817
     70  ND1       34.1680   73.7160   15.6710 N.ar  203  HIS203     -0.2268
     71  CD2       32.1640   73.8350   14.7840 C.ar  203  HIS203      0.1154
     72  CE1       33.9860   72.6190   14.9630 C.ar  203  HIS203      0.1986
     73  NE2       32.7820   72.6640   14.4170 N.ar  203  HIS203     -0.2212
     74  N         27.2020   75.3400   16.2880 N.3   205  ALA205     -0.1245
     75  CA        26.3150   75.8720   15.2560 C.3   205  ALA205      0.1562
     76  C         24.9600   76.1740   15.9110 C.2   205  ALA205      0.2260
     77  O         24.2850   75.2780   16.4590 O.2   205  ALA205     -0.2867
     78  CB        26.1730   74.9020   14.0710 C.3   205  ALA205      0.0290
     79  N         19.7580   75.7570    5.0500 N.3   214  ARG214     -0.1245
     80  CA        21.1260   76.1440    5.3770 C.3   214  ARG214      0.1563
     81  C         21.9790   75.0950    4.7440 C.2   214  ARG214      0.2260
     82  O         21.8870   73.9110    5.0860 O.2   214  ARG214     -0.2867
     83  CB        21.3590   76.1290    6.8860 C.3   214  ARG214      0.0307
     84  CG        22.7430   76.6980    7.3310 C.3   214  ARG214      0.0489
     85  CD        22.7920   76.7560    8.8460 C.3   214  ARG214      0.2205
     86  NE        23.9670   77.3470    9.4780 N.pl3 214  ARG214     -0.0865
     87  CZ        25.1060   76.7010    9.7290 C.cat 214  ARG214      0.5346
     88  NH1       25.2730   75.4310    9.3390 N.pl3 214  ARG214      0.1354
     89  NH2       26.0760   77.3310   10.4110 N.pl3 214  ARG214      0.1354
     90  N         26.0320   74.3040    3.7010 N.3   216  VAL216     -0.1245
     91  CA        27.4230   74.6890    3.8280 C.3   216  VAL216      0.1561
     92  C         28.2600   73.5660    3.2320 C.2   216  VAL216      0.2260
     93  O         27.8320   72.3990    3.2450 O.2   216  VAL216     -0.2867
     94  CB        27.8390   74.8740    5.2920 C.3   216  VAL216      0.0252
     95  CG1       27.1740   76.1520    5.9220 C.3   216  VAL216      0.0019
     96  CG2       27.5770   73.6280    6.1120 C.3   216  VAL216      0.0019
     97  N         32.1480   71.7290    3.3170 N.3   218  ARG218     -0.1245
     98  CA        33.2600   71.6360    4.2240 C.3   218  ARG218      0.1563
     99  C         34.3850   70.7950    3.6350 C.2   218  ARG218      0.2260
    100  O         34.1220   69.7050    3.0780 O.2   218  ARG218     -0.2867
    101  CB        32.7630   70.9770    5.5220 C.3   218  ARG218      0.0307
    102  CG        33.8630   70.6800    6.5010 C.3   218  ARG218      0.0489
    103  CD        33.4480   70.7390    7.9070 C.3   218  ARG218      0.2205
    104  NE        32.8960   69.5050    8.4230 N.pl3 218  ARG218     -0.0865
    105  CZ        33.1160   69.0960    9.7010 C.cat 218  ARG218      0.5346
    106  NH1       33.9080   69.8280   10.5350 N.pl3 218  ARG218      0.1354
    107  NH2       32.5590   67.9540   10.1440 N.pl3 218  ARG218      0.1354
@<TRIPOS>BOND
     1   100    99    2
     2    92    93    2
     3    92    91    1
     4    97    98    1
     5    99    98    1
     6    90    91    1
     7    91    94    1
     8    98   101    1
     9    81    82    2
    10    81    80    1
    11    37    38    2
    12    37    36    1
    13    79    80    1
    14    94    95    1
    15    94    96    1
    16    80    83    1
    17    36    35    1
    18    36    39    1
    19   101   102    1
    20   102   103    1
    21    41    40    1
    22    83    84    1
    23    39    40    1
    24    40    42    1
    25    84    85    1
    26   103   104    1
    27   104   105    2
    28    85    86    1
    29    88    87    1
    30    86    87    2
    31   105   107    1
    32   105   106    1
    33    87    89    1
    34    62    63   ar
    35    62    60   ar
    36    10     9    1
    37    50    51    1
    38    63    61   ar
    39    60    57   ar
    40    53    52    2
    41    61    59   ar
    42     9    11    1
    43     9     8    2
    44    51    52    1
    45    51    54    1
    46    57    59   ar
    47    57    55   ar
    48     7     8    1
    49     7     6    1
    50     1     2    1
    51    48    47    1
    52    59    58   ar
    53    55    54    1
    54    55    56   ar
    55     6     5    1
    56    47    49    1
    57    47    44    1
    58    34    32   ar
    59     2     5    1
    60     2     3    1
    61    58    56   ar
    62    43    44    1
    63    32    33   ar
    64    32    31    1
    65    78    75    1
    66    44    45    1
    67    31    28    1
    68    73    71   ar
    69    73    72   ar
    70     3    12   am
    71     3     4    2
    72    12    13    1
    73    71    69   ar
    74    46    45    2
    75    72    70   ar
    76    16    13    1
    77    75    76    1
    78    75    74    1
    79    69    70   ar
    80    69    68    1
    81    28    29    1
    82    28    27    1
    83    13    14    1
    84    29    30    2
    85    76    77    2
    86    26    25   ar
    87    26    24   ar
    88    68    65    1
    89    14    15    2
    90    25    23   ar
    91    24    22   ar
    92    65    66    1
    93    65    64    1
    94    66    67    2
    95    23    22   ar
    96    22    21    1
    97    20    19    2
    98    19    18    1
    99    21    18    1
   100    18    17    1
