@<TRIPOS>MOLECULE
tmp/1oikB01.pdb
 124 120 0 0 0
SMALL
GASTEIGER

@<TRIPOS>ATOM
      1  N         53.3200   36.3530   37.3640 N.3    68  HIS68      -0.1241
      2  CA        53.0230   37.7230   37.7900 C.3    68  HIS68       0.1621
      3  C         53.3310   37.9640   39.2850 C.2    68  HIS68       0.2264
      4  O         53.3680   37.0270   40.0930 O.2    68  HIS68      -0.2867
      5  CB        51.5690   38.0890   37.4380 C.3    68  HIS68       0.0745
      6  CG        51.0040   39.2220   38.2420 C.ar   68  HIS68       0.0817
      7  ND1       50.5850   39.0740   39.5480 N.ar   68  HIS68      -0.2268
      8  CD2       50.7700   40.5160   37.9170 C.ar   68  HIS68       0.1154
      9  CE1       50.1270   40.2300   39.9960 C.ar   68  HIS68       0.1986
     10  NE2       50.2250   41.1210   39.0240 N.ar   68  HIS68      -0.2212
     11  N         49.5370   34.5360   31.4710 N.3    78  LEU78      -0.1245
     12  CA        48.4400   35.2330   32.1520 C.3    78  LEU78       0.1561
     13  C         47.3450   35.6830   31.1650 C.2    78  LEU78       0.2260
     14  O         47.6530   36.2440   30.1190 O.2    78  LEU78      -0.2867
     15  CB        48.9810   36.4780   32.8510 C.3    78  LEU78       0.0270
     16  CG        47.9610   37.2820   33.6540 C.3    78  LEU78       0.0019
     17  CD1       48.2740   37.0650   35.1370 C.3    78  LEU78       0.0001
     18  CD2       47.9180   38.8050   33.2710 C.3    78  LEU78       0.0001
     19  N         44.0610   38.1890   30.4450 N.3    80  LEU80      -0.1245
     20  CA        43.2010   39.3090   30.8650 C.3    80  LEU80       0.1561
     21  C         41.8970   39.3040   30.0380 C.2    80  LEU80       0.2260
     22  O         41.9290   39.3680   28.7840 O.2    80  LEU80      -0.2867
     23  CB        43.9300   40.6670   30.8460 C.3    80  LEU80       0.0270
     24  CG        43.1770   41.8900   31.3480 C.3    80  LEU80       0.0019
     25  CD1       43.0040   41.8430   32.8610 C.3    80  LEU80       0.0001
     26  CD2       43.9010   43.1710   30.9400 C.3    80  LEU80       0.0001
     27  N         39.9150   45.3270   33.8150 N.3    82  ARG82      -0.1231
     28  CA        40.1940   46.2790   32.7290 C.3    82  ARG82       0.1694
     29  C         41.2240   47.3590   33.1520 C.2    82  ARG82       0.2592
     30  O         41.0190   48.0740   34.1420 O.2    82  ARG82      -0.2718
     31  CB        38.8730   46.8690   32.2200 C.3    82  ARG82       0.0321
     32  CG        38.2560   46.0460   31.0810 C.3    82  ARG82       0.0489
     33  CD        36.8470   45.5300   31.2920 C.3    82  ARG82       0.2205
     34  NE        35.9790   46.2370   30.3820 N.pl3  82  ARG82      -0.0865
     35  CZ        35.0040   45.7310   29.6140 C.cat  82  ARG82       0.5346
     36  NH1       34.3160   46.5780   28.8540 N.pl3  82  ARG82       0.1354
     37  NH2       34.6860   44.4220   29.6070 N.pl3  82  ARG82       0.1354
     38  N         42.3390   47.4430   32.4080 N.am   83  ALA83      -0.1966
     39  CA        43.5460   48.1640   32.8590 C.3    83  ALA83       0.1728
     40  C         43.6080   49.5880   32.2580 C.2    83  ALA83       0.2616
     41  O         44.6440   50.0060   31.6800 O.2    83  ALA83      -0.2715
     42  CB        44.7920   47.3620   32.4910 C.3    83  ALA83       0.0334
     43  N         42.4850   50.3040   32.3960 N.am   84  ASN84      -0.1958
     44  CA        42.3480   51.6340   31.8030 C.3    84  ASN84       0.1819
     45  C         42.9160   52.7110   32.7700 C.2    84  ASN84       0.2622
     46  O         42.2270   53.6090   33.2100 O.2    84  ASN84      -0.2715
     47  CB        40.8940   51.8880   31.3290 C.3    84  ASN84       0.1195
     48  CG        39.9110   52.0820   32.4620 C.2    84  ASN84       0.2630
     49  OD1       40.0170   51.4880   33.5240 O.2    84  ASN84      -0.2716
     50  ND2       38.9420   52.9570   32.2320 N.am   84  ASN84      -0.0877
     51  N         44.2050   52.5930   33.0490 N.am   85  SER85      -0.1950
     52  CA        44.8860   53.5300   33.9320 C.3    85  SER85       0.1924
     53  C         46.3290   53.3650   33.5260 C.2    85  SER85       0.2314
     54  O         46.7990   52.2300   33.2010 O.2    85  SER85      -0.2863
     55  CB        44.5780   53.1210   35.3730 C.3    85  SER85       0.2116
     56  OG        45.5530   53.5540   36.2360 O.3    85  SER85      -0.2180
     57  N         50.1900   53.0040   33.5100 N.3    87  HIS87      -0.1241
     58  CA        50.9810   52.2240   34.4680 C.3    87  HIS87       0.1621
     59  C         52.1220   51.5290   33.7670 C.2    87  HIS87       0.2264
     60  O         52.0870   51.2600   32.5660 O.2    87  HIS87      -0.2867
     61  CB        50.0930   51.2220   35.2420 C.3    87  HIS87       0.0745
     62  CG        49.6390   50.0620   34.3870 C.ar   87  HIS87       0.0817
     63  ND1       48.5360   50.1380   33.5640 N.ar   87  HIS87      -0.2268
     64  CD2       50.1760   48.8310   34.1890 C.ar   87  HIS87       0.1154
     65  CE1       48.4190   49.0000   32.8880 C.ar   87  HIS87       0.1986
     66  NE2       49.4020   48.1960   33.2500 N.ar   87  HIS87      -0.2212
     67  N         54.2370   47.9440   34.2910 N.3    89  ASP89      -0.1225
     68  CA        53.7730   46.6760   34.9270 C.3    89  ASP89       0.1805
     69  C         54.5690   46.3440   36.1730 C.2    89  ASP89       0.2597
     70  O         55.7970   46.4290   36.1660 O.2    89  ASP89      -0.2718
     71  CB        53.8550   45.5130   33.9410 C.3    89  ASP89       0.1424
     72  CG        52.8010   45.5990   32.8740 C.2    89  ASP89       0.3668
     73  OD1       53.1240   45.2810   31.6810 O.co2  89  ASP89      -0.2456
     74  OD2       51.6100   45.9520   33.1340 O.co2  89  ASP89      -0.2456
     75  N         53.8530   46.0820   37.2560 N.am   90  VAL90      -0.1980
     76  CA        54.3850   45.5800   38.5200 C.3    90  VAL90       0.1595
     77  C         55.4280   46.4350   39.2200 C.2    90  VAL90       0.2287
     78  O         56.2790   45.8970   39.9340 O.2    90  VAL90      -0.2864
     79  CB        54.9300   44.0980   38.3940 C.3    90  VAL90       0.0276
     80  CG1       54.7260   43.3750   39.7010 C.3    90  VAL90       0.0022
     81  CG2       54.2170   43.3080   37.3280 C.3    90  VAL90       0.0022
     82  N         55.3540   48.0650   41.7740 N.3    92  PHE92      -0.1241
     83  CA        55.3210   47.9290   43.2320 C.3    92  PHE92       0.1605
     84  C         56.3810   46.9250   43.7910 C.2    92  PHE92       0.2264
     85  O         56.5280   46.8100   45.0160 O.2    92  PHE92      -0.2867
     86  CB        53.9150   47.6100   43.7550 C.3    92  PHE92       0.0534
     87  CG        53.2540   46.4130   43.0880 C.ar   92  PHE92      -0.0203
     88  CD1       53.4660   45.1120   43.5690 C.ar   92  PHE92      -0.0042
     89  CD2       52.3940   46.5840   42.0060 C.ar   92  PHE92      -0.0042
     90  CE1       52.8580   44.0040   42.9710 C.ar   92  PHE92      -0.0003
     91  CE2       51.7730   45.4860   41.3990 C.ar   92  PHE92      -0.0003
     92  CZ        52.0110   44.1830   41.8860 C.ar   92  PHE92      -0.0000
     93  N         50.4470   54.5540   37.7290 N.3   168  HIS168     -0.1226
     94  CA        49.3580   54.2610   38.6350 C.3   168  HIS168      0.1752
     95  C         49.7830   53.6880   40.0130 C.2   168  HIS168      0.2596
     96  O         49.1030   53.9150   41.0090 O.2   168  HIS168     -0.2718
     97  CB        48.4040   53.2750   37.9240 C.3   168  HIS168      0.0759
     98  CG        47.3440   52.6920   38.8070 C.ar  168  HIS168      0.0818
     99  ND1       46.1580   53.3490   39.0920 N.ar  168  HIS168     -0.2268
    100  CD2       47.2980   51.5130   39.4840 C.ar  168  HIS168      0.1154
    101  CE1       45.4330   52.6020   39.9180 C.ar  168  HIS168      0.1986
    102  NE2       46.1020   51.4860   40.1740 N.ar  168  HIS168     -0.2212
    103  N         50.8950   52.9620   40.0650 N.am  169  PHE169     -0.1976
    104  CA        51.3310   52.3530   41.3330 C.3   169  PHE169      0.1639
    105  C         52.0570   53.3020   42.2480 C.2   169  PHE169      0.2290
    106  O         52.3060   52.9420   43.3830 O.2   169  PHE169     -0.2864
    107  CB        52.2040   51.1070   41.0900 C.3   169  PHE169      0.0560
    108  CG        51.4590   50.0070   40.4150 C.ar  169  PHE169     -0.0200
    109  CD1       50.3270   49.4700   41.0260 C.ar  169  PHE169     -0.0042
    110  CD2       51.8300   49.5560   39.1470 C.ar  169  PHE169     -0.0042
    111  CE1       49.5950   48.4330   40.3880 C.ar  169  PHE169     -0.0003
    112  CE2       51.0890   48.5580   38.4910 C.ar  169  PHE169     -0.0003
    113  CZ        49.9610   47.9920   39.1190 C.ar  169  PHE169     -0.0000
    114  N         49.2330   37.1710   28.0610 N.3   233  ARG233     -0.1245
    115  CA        50.5060   37.8140   28.2560 C.3   233  ARG233      0.1563
    116  C         51.5200   36.9450   28.9590 C.2   233  ARG233      0.2260
    117  O         51.2120   36.2500   29.9290 O.2   233  ARG233     -0.2867
    118  CB        50.3390   39.1820   28.9240 C.3   233  ARG233      0.0307
    119  CG        50.4300   39.2740   30.3940 C.3   233  ARG233      0.0489
    120  CD        51.6250   40.1370   30.8730 C.3   233  ARG233      0.2205
    121  NE        51.2530   41.4510   31.4070 N.pl3 233  ARG233     -0.0865
    122  CZ        51.2670   41.8240   32.7110 C.cat 233  ARG233      0.5346
    123  NH1       51.6340   40.9980   33.6870 N.pl3 233  ARG233      0.1354
    124  NH2       50.9110   43.0600   33.0470 N.pl3 233  ARG233      0.1354
@<TRIPOS>BOND
     1   114   115    1
     2   115   118    1
     3   115   116    1
     4    22    21    2
     5    36    35    1
     6   118   119    1
     7   116   117    2
     8    37    35    1
     9    35    34    2
    10    21    20    1
    11    14    13    2
    12    34    33    1
    13   119   120    1
    14    19    20    1
    15    23    20    1
    16    23    24    1
    17   120   121    1
    18    26    24    1
    19    32    33    1
    20    32    31    1
    21    13    12    1
    22    47    44    1
    23    47    48    1
    24    24    25    1
    25   121   122    2
    26    11    12    1
    27    41    40    2
    28    73    72   ar
    29    44    43    1
    30    44    45    1
    31    12    15    1
    32    31    28    1
    33    50    48   am
    34    40    43   am
    35    40    39    1
    36    38    39    1
    37    38    29   am
    38    48    49    2
    39    42    39    1
    40    60    59    2
    41   122   124    1
    42   122   123    1
    43    28    29    1
    44    28    27    1
    45    45    51   am
    46    45    46    2
    47    15    16    1
    48    72    74   ar
    49    72    71    1
    50    65    66   ar
    51    65    63   ar
    52    51    52    1
    53    29    30    2
    54    54    53    2
    55    66    64   ar
    56    18    16    1
    57    57    58    1
    58    53    52    1
    59    63    62   ar
    60    16    17    1
    61    59    58    1
    62    52    55    1
    63    71    68    1
    64    64    62   ar
    65    67    68    1
    66    62    61    1
    67    58    61    1
    68    68    69    1
    69    55    56    1
    70    70    69    2
    71    69    75   am
    72    75    76    1
    73    81    79    1
    74     1     2    1
    75     5     2    1
    76     5     6    1
    77    93    94    1
    78     2     3    1
    79     8     6   ar
    80     8    10   ar
    81    97    94    1
    82    97    98    1
    83     6     7   ar
    84    79    76    1
    85    79    80    1
    86   112   113   ar
    87   112   110   ar
    88    76    77    1
    89    94    95    1
    90    98    99   ar
    91    98   100   ar
    92    10     9   ar
    93    99   101   ar
    94   113   111   ar
    95   110   108   ar
    96    77    78    2
    97     3     4    2
    98   100   102   ar
    99     7     9   ar
   100   101   102   ar
   101    95   103   am
   102    95    96    2
   103   103   104    1
   104   111   109   ar
   105   108   109   ar
   106   108   107    1
   107   107   104    1
   108   104   105    1
   109    91    92   ar
   110    91    89   ar
   111    82    83    1
   112    92    90   ar
   113    89    87   ar
   114   105   106    2
   115    90    88   ar
   116    87    88   ar
   117    87    86    1
   118    83    86    1
   119    83    84    1
   120    84    85    2
