@<TRIPOS>MOLECULE
tmp/1oikB00.pdb
 112 103 0 0 0
SMALL
GASTEIGER

@<TRIPOS>ATOM
      1  N         49.5370   34.5360   31.4710 N.3    78  LEU78      -0.1245
      2  CA        48.4400   35.2330   32.1520 C.3    78  LEU78       0.1561
      3  C         47.3450   35.6830   31.1650 C.2    78  LEU78       0.2260
      4  O         47.6530   36.2440   30.1190 O.2    78  LEU78      -0.2867
      5  CB        48.9810   36.4780   32.8510 C.3    78  LEU78       0.0270
      6  CG        47.9610   37.2820   33.6540 C.3    78  LEU78       0.0019
      7  CD1       48.2740   37.0650   35.1370 C.3    78  LEU78       0.0001
      8  CD2       47.9180   38.8050   33.2710 C.3    78  LEU78       0.0001
      9  N         44.0610   38.1890   30.4450 N.3    80  LEU80      -0.1245
     10  CA        43.2010   39.3090   30.8650 C.3    80  LEU80       0.1561
     11  C         41.8970   39.3040   30.0380 C.2    80  LEU80       0.2260
     12  O         41.9290   39.3680   28.7840 O.2    80  LEU80      -0.2867
     13  CB        43.9300   40.6670   30.8460 C.3    80  LEU80       0.0270
     14  CG        43.1770   41.8900   31.3480 C.3    80  LEU80       0.0019
     15  CD1       43.0040   41.8430   32.8610 C.3    80  LEU80       0.0001
     16  CD2       43.9010   43.1710   30.9400 C.3    80  LEU80       0.0001
     17  N         42.3390   47.4430   32.4080 N.3    83  ALA83      -0.1245
     18  CA        43.5460   48.1640   32.8590 C.3    83  ALA83       0.1562
     19  C         43.6080   49.5880   32.2580 C.2    83  ALA83       0.2260
     20  O         44.6440   50.0060   31.6800 O.2    83  ALA83      -0.2867
     21  CB        44.7920   47.3620   32.4910 C.3    83  ALA83       0.0290
     22  N         50.1900   53.0040   33.5100 N.3    87  HIS87      -0.1241
     23  CA        50.9810   52.2240   34.4680 C.3    87  HIS87       0.1621
     24  C         52.1220   51.5290   33.7670 C.2    87  HIS87       0.2264
     25  O         52.0870   51.2600   32.5660 O.2    87  HIS87      -0.2867
     26  CB        50.0930   51.2220   35.2420 C.3    87  HIS87       0.0745
     27  CG        49.6390   50.0620   34.3870 C.ar   87  HIS87       0.0817
     28  ND1       48.5360   50.1380   33.5640 N.ar   87  HIS87      -0.2268
     29  CD2       50.1760   48.8310   34.1890 C.ar   87  HIS87       0.1154
     30  CE1       48.4190   49.0000   32.8880 C.ar   87  HIS87       0.1986
     31  NE2       49.4020   48.1960   33.2500 N.ar   87  HIS87      -0.2212
     32  N         54.2370   47.9440   34.2910 N.3    89  ASP89      -0.1239
     33  CA        53.7730   46.6760   34.9270 C.3    89  ASP89       0.1674
     34  C         54.5690   46.3440   36.1730 C.2    89  ASP89       0.2266
     35  O         55.7970   46.4290   36.1660 O.2    89  ASP89      -0.2867
     36  CB        53.8550   45.5130   33.9410 C.3    89  ASP89       0.1410
     37  CG        52.8010   45.5990   32.8740 C.2    89  ASP89       0.3668
     38  OD1       53.1240   45.2810   31.6810 O.co2  89  ASP89      -0.2456
     39  OD2       51.6100   45.9520   33.1340 O.co2  89  ASP89      -0.2456
     40  N         52.3080   40.2490   24.4400 N.3   102  LEU102     -0.1245
     41  CA        50.8660   40.2140   24.6080 C.3   102  LEU102      0.1561
     42  C         50.2460   39.8290   23.2930 C.2   102  LEU102      0.2260
     43  O         50.5570   40.4260   22.2680 O.2   102  LEU102     -0.2867
     44  CB        50.3150   41.6180   25.0420 C.3   102  LEU102      0.0270
     45  CG        48.8260   41.7180   25.3630 C.3   102  LEU102      0.0019
     46  CD1       48.4740   40.8340   26.5940 C.3   102  LEU102      0.0001
     47  CD2       48.3890   43.1780   25.6180 C.3   102  LEU102      0.0001
     48  N         44.9090   49.5280   22.9360 N.3   114  THR114     -0.1218
     49  CA        45.9170   49.7260   23.9400 C.3   114  THR114      0.1862
     50  C         46.7910   50.9220   23.4740 C.2   114  THR114      0.2287
     51  O         47.0100   51.0990   22.2910 O.2   114  THR114     -0.2866
     52  CB        46.7560   48.4840   24.1020 C.3   114  THR114      0.1770
     53  OG1       45.8900   47.3670   24.4470 O.3   114  THR114     -0.2211
     54  CG2       47.6340   48.6330   25.3490 C.3   114  THR114      0.0375
     55  N         56.6750   45.0410   24.5090 N.3   211  TRP211     -0.1241
     56  CA        57.1120   46.4120   24.8440 C.3   211  TRP211      0.1605
     57  C         58.1790   46.3550   25.8850 C.2   211  TRP211      0.2264
     58  O         58.1920   45.4170   26.6750 O.2   211  TRP211     -0.2867
     59  CB        55.9290   47.2550   25.3390 C.3   211  TRP211      0.0550
     60  CG        55.2350   46.7870   26.5010 C.ar  211  TRP211      0.0003
     61  CD1       55.5220   47.0960   27.7770 C.ar  211  TRP211      0.0946
     62  CD2       54.0500   45.9260   26.5510 C.ar  211  TRP211      0.0152
     63  NE1       54.6160   46.4960   28.6130 N.ar  211  TRP211     -0.2442
     64  CE2       53.6950   45.7980   27.8840 C.ar  211  TRP211      0.0810
     65  CE3       53.2470   45.2970   25.5860 C.ar  211  TRP211      0.0012
     66  CZ2       52.5870   45.0420   28.3180 C.ar  211  TRP211      0.0191
     67  CZ3       52.1300   44.5370   26.0270 C.ar  211  TRP211      0.0001
     68  CH2       51.8300   44.4240   27.3630 C.ar  211  TRP211      0.0015
     69  N         51.5600   51.9390   29.8040 N.3   218  HIS218     -0.1241
     70  CA        50.5370   51.6300   28.8250 C.3   218  HIS218      0.1621
     71  C         49.1850   51.6970   29.5050 C.2   218  HIS218      0.2264
     72  O         49.1280   51.7890   30.6780 O.2   218  HIS218     -0.2867
     73  CB        50.7420   50.2070   28.2020 C.3   218  HIS218      0.0745
     74  CG        50.9370   49.1230   29.2270 C.ar  218  HIS218      0.0817
     75  ND1       52.1650   48.8780   29.8120 N.ar  218  HIS218     -0.2268
     76  CD2       50.0910   48.1690   29.7090 C.ar  218  HIS218      0.1154
     77  CE1       52.0490   47.8660   30.6730 C.ar  218  HIS218      0.1986
     78  NE2       50.8100   47.3800   30.6040 N.ar  218  HIS218     -0.2212
     79  N         44.9550   50.3260   28.7650 N.3   220  ALA220     -0.1245
     80  CA        44.0030   49.5940   27.9270 C.3   220  ALA220      0.1562
     81  C         42.7040   50.3730   27.9210 C.2   220  ALA220      0.2260
     82  O         42.1240   50.5600   28.9820 O.2   220  ALA220     -0.2867
     83  CB        43.7370   48.1420   28.5690 C.3   220  ALA220      0.0290
     84  N         36.7250   40.4180   24.8430 N.3   229  ARG229     -0.1245
     85  CA        38.1030   40.7750   24.6060 C.3   229  ARG229      0.1563
     86  C         38.9550   39.8830   25.4680 C.2   229  ARG229      0.2260
     87  O         38.8420   39.9240   26.6810 O.2   229  ARG229     -0.2867
     88  CB        38.3510   42.2180   24.9910 C.3   229  ARG229      0.0307
     89  CG        39.7620   42.7210   24.6410 C.3   229  ARG229      0.0489
     90  CD        39.9490   44.1670   25.0590 C.3   229  ARG229      0.2205
     91  NE        41.2030   44.7760   24.6890 N.pl3 229  ARG229     -0.0865
     92  CZ        42.3260   44.6900   25.3900 C.cat 229  ARG229      0.5346
     93  NH1       42.4070   43.9330   26.4900 N.pl3 229  ARG229      0.1354
     94  NH2       43.3900   45.3300   24.9420 N.pl3 229  ARG229      0.1354
     95  N         43.0290   38.6330   25.9320 N.3   231  VAL231     -0.1245
     96  CA        44.4370   38.7300   25.5470 C.3   231  VAL231      0.1561
     97  C         45.2690   37.8940   26.4750 C.2   231  VAL231      0.2260
     98  O         44.8690   37.7020   27.6210 O.2   231  VAL231     -0.2867
     99  CB        44.9470   40.2080   25.5660 C.3   231  VAL231      0.0252
    100  CG1       44.1780   41.0200   24.6130 C.3   231  VAL231      0.0019
    101  CG2       44.8500   40.8160   26.9740 C.3   231  VAL231      0.0019
    102  N         49.2330   37.1710   28.0610 N.3   233  ARG233     -0.1245
    103  CA        50.5060   37.8140   28.2560 C.3   233  ARG233      0.1563
    104  C         51.5200   36.9450   28.9590 C.2   233  ARG233      0.2260
    105  O         51.2120   36.2500   29.9290 O.2   233  ARG233     -0.2867
    106  CB        50.3390   39.1820   28.9240 C.3   233  ARG233      0.0307
    107  CG        50.4300   39.2740   30.3940 C.3   233  ARG233      0.0489
    108  CD        51.6250   40.1370   30.8730 C.3   233  ARG233      0.2205
    109  NE        51.2530   41.4510   31.4070 N.pl3 233  ARG233     -0.0865
    110  CZ        51.2670   41.8240   32.7110 C.cat 233  ARG233      0.5346
    111  NH1       51.6340   40.9980   33.6870 N.pl3 233  ARG233      0.1354
    112  NH2       50.9110   43.0600   33.0470 N.pl3 233  ARG233      0.1354
@<TRIPOS>BOND
     1    43    42    2
     2    51    50    2
     3    48    49    1
     4    42    41    1
     5    50    49    1
     6    49    52    1
     7    52    53    1
     8    52    54    1
     9    40    41    1
    10    55    56    1
    11    85    84    1
    12    85    88    1
    13    85    86    1
    14    41    44    1
    15   100    99    1
    16    89    88    1
    17    89    90    1
    18    91    90    1
    19    91    92    2
    20    56    59    1
    21    56    57    1
    22    94    92    1
    23    44    45    1
    24    59    60    1
    25    45    47    1
    26    45    46    1
    27    92    93    1
    28    86    87    2
    29    96    99    1
    30    96    95    1
    31    96    97    1
    32    99   101    1
    33    65    67   ar
    34    65    62   ar
    35    57    58    2
    36    67    68   ar
    37    97    98    2
    38    60    62   ar
    39    60    61   ar
    40    62    64   ar
    41    68    66   ar
    42    61    63   ar
    43    64    66   ar
    44    64    63   ar
    45    81    80    1
    46    81    82    2
    47    80    83    1
    48    80    79    1
    49   102   103    1
    50    73    70    1
    51    73    74    1
    52   103   106    1
    53   103   104    1
    54    12    11    2
    55    70    71    1
    56    70    69    1
    57   106   107    1
    58   104   105    2
    59    74    76   ar
    60    74    75   ar
    61    71    72    2
    62    76    78   ar
    63    75    77   ar
    64    11    10    1
    65     4     3    2
    66   107   108    1
    67     9    10    1
    68    78    77   ar
    69    13    10    1
    70    13    14    1
    71   108   109    1
    72    16    14    1
    73     3     2    1
    74    14    15    1
    75   109   110    2
    76     1     2    1
    77    20    19    2
    78    38    37   ar
    79     2     5    1
    80    19    18    1
    81    17    18    1
    82    21    18    1
    83    25    24    2
    84   110   112    1
    85   110   111    1
    86     5     6    1
    87    37    39   ar
    88    37    36    1
    89    30    31   ar
    90    30    28   ar
    91    31    29   ar
    92     8     6    1
    93    22    23    1
    94    28    27   ar
    95     6     7    1
    96    24    23    1
    97    36    33    1
    98    29    27   ar
    99    32    33    1
   100    27    26    1
   101    23    26    1
   102    33    34    1
   103    35    34    2
