@<TRIPOS>MOLECULE
tmp/1oimA00.pdb
 133 135 0 0 0
SMALL
GASTEIGER

@<TRIPOS>ATOM
      1  N          3.2080   13.9560    0.6980 N.3    18  GLN18      -0.1245
      2  CA         1.9050   13.3510    0.4260 C.3    18  GLN18       0.1566
      3  C          1.0720   13.9960   -0.7080 C.2    18  GLN18       0.2260
      4  O          0.2170   13.3250   -1.2860 O.2    18  GLN18      -0.2867
      5  CB         1.0830   13.2460    1.7070 C.3    18  GLN18       0.0367
      6  CG         1.8420   12.5920    2.8360 C.3    18  GLN18       0.0905
      7  CD         0.9800   12.3590    4.0650 C.2    18  GLN18       0.2608
      8  OE1        1.0700   13.1250    5.0400 O.2    18  GLN18      -0.2717
      9  NE2        0.1920   11.2730    4.0550 N.am   18  GLN18      -0.0878
     10  N          8.0840   16.8930    8.3180 N.3   119  HIS119     -0.1226
     11  CA         7.0060   15.9060    8.2230 C.3   119  HIS119      0.1752
     12  C          7.4990   14.6970    7.4060 C.2   119  HIS119      0.2596
     13  O          6.8310   14.2750    6.4570 O.2   119  HIS119     -0.2718
     14  CB         5.7190   16.5330    7.6300 C.3   119  HIS119      0.0759
     15  CG         4.4530   15.7880    7.9570 C.ar  119  HIS119      0.0818
     16  ND1        3.3580   16.3990    8.5400 N.ar  119  HIS119     -0.2268
     17  CD2        4.0950   14.4940    7.7530 C.ar  119  HIS119      0.1154
     18  CE1        2.3870   15.5130    8.6830 C.ar  119  HIS119      0.1986
     19  NE2        2.8110   14.3470    8.2290 N.ar  119  HIS119     -0.2212
     20  N          8.6820   14.1750    7.7840 N.am  120  TRP120     -0.1976
     21  CA         9.1480   12.8300    7.4160 C.3   120  TRP120      0.1640
     22  C         10.0550   12.7130    6.1720 C.2   120  TRP120      0.2290
     23  O         10.6830   11.6710    5.9820 O.2   120  TRP120     -0.2864
     24  CB         7.9940   11.7910    7.3190 C.3   120  TRP120      0.0576
     25  CG         7.1040   11.7010    8.5430 C.ar  120  TRP120      0.0006
     26  CD1        7.2020   12.4470    9.7030 C.ar  120  TRP120      0.0946
     27  CD2        5.9540   10.8560    8.7230 C.ar  120  TRP120      0.0152
     28  NE1        6.1920   12.1080   10.5780 N.ar  120  TRP120     -0.2442
     29  CE2        5.4200   11.1310   10.0120 C.ar  120  TRP120      0.0810
     30  CE3        5.3260    9.8810    7.9370 C.ar  120  TRP120      0.0012
     31  CZ2        4.3010   10.4660   10.5220 C.ar  120  TRP120      0.0191
     32  CZ3        4.2010    9.2140    8.4610 C.ar  120  TRP120      0.0001
     33  CH2        3.6970    9.5230    9.7260 C.ar  120  TRP120      0.0015
     34  N          6.6560   16.6230   13.2430 N.3   163  ASN163     -0.1225
     35  CA         5.4240   15.8470   13.1930 C.3   163  ASN163      0.1785
     36  C          5.6280   14.4210   13.6610 C.2   163  ASN163      0.2597
     37  O          6.3820   13.6850   13.0190 O.2   163  ASN163     -0.2718
     38  CB         4.8550   15.7570   11.7650 C.3   163  ASN163      0.1169
     39  CG         3.4810   15.0090   11.7280 C.2   163  ASN163      0.2627
     40  OD1        2.4890   15.5330   12.2410 O.2   163  ASN163     -0.2716
     41  ND2        3.4520   13.7690   11.1740 N.am  163  ASN163     -0.0877
     42  N          4.9250   14.0160   14.7340 N.am  164  GLU164     -0.1979
     43  CA         4.9060   12.6320   15.2030 C.3   164  GLU164      0.1602
     44  C          6.3020   11.9600   15.3030 C.2   164  GLU164      0.2287
     45  O          6.5540   10.9650   14.6190 O.2   164  GLU164     -0.2864
     46  CB         3.9720   11.7480   14.3540 C.3   164  GLU164      0.0415
     47  CG         2.6050   12.3140   14.0890 C.3   164  GLU164      0.1163
     48  CD         1.6260   11.2720   13.5480 C.2   164  GLU164      0.3649
     49  OE1        2.0120   10.3420   12.8030 O.co2 164  GLU164     -0.2457
     50  OE2        0.4500   11.3720   13.9170 O.co2 164  GLU164     -0.2457
     51  N         -6.7090    9.8150   16.2730 N.3   292  TYR292     -0.1241
     52  CA        -7.4940    9.0530   15.2990 C.3   292  TYR292      0.1605
     53  C         -8.3330    7.9300   15.9150 C.2   292  TYR292      0.2264
     54  O         -9.4630    7.6910   15.4780 O.2   292  TYR292     -0.2867
     55  CB        -6.5900    8.4640   14.1810 C.3   292  TYR292      0.0534
     56  CG        -6.0230    9.5160   13.2490 C.ar  292  TYR292     -0.0201
     57  CD1       -4.8820   10.2430   13.5880 C.ar  292  TYR292     -0.0009
     58  CD2       -6.6430    9.8070   12.0440 C.ar  292  TYR292     -0.0009
     59  CE1       -4.3670   11.2290   12.7260 C.ar  292  TYR292      0.0417
     60  CE2       -6.1450   10.7860   11.2000 C.ar  292  TYR292      0.0417
     61  CZ        -5.0070   11.4790   11.5490 C.ar  292  TYR292      0.1957
     62  OH        -4.5350   12.4340   10.7120 O.3   292  TYR292     -0.2866
     63  N         -9.1790    1.0530   11.8310 N.3   321  TRP321     -0.1241
     64  CA        -8.9960    1.7420   13.1100 C.3   321  TRP321      0.1605
     65  C        -10.3500    1.9310   13.8160 C.2   321  TRP321      0.2264
     66  O        -11.2870    2.5010   13.2370 O.2   321  TRP321     -0.2867
     67  CB        -8.3560    3.1340   12.9010 C.3   321  TRP321      0.0550
     68  CG        -6.9620    3.1360   12.3370 C.ar  321  TRP321      0.0003
     69  CD1       -6.1090    2.0620   12.2330 C.ar  321  TRP321      0.0946
     70  CD2       -6.2520    4.2650   11.8020 C.ar  321  TRP321      0.0152
     71  NE1       -4.9310    2.4530   11.6510 N.ar  321  TRP321     -0.2442
     72  CE2       -4.9880    3.7990   11.3720 C.ar  321  TRP321      0.0810
     73  CE3       -6.5700    5.6250   11.6110 C.ar  321  TRP321      0.0012
     74  CZ2       -4.0240    4.6460   10.7790 C.ar  321  TRP321      0.0191
     75  CZ3       -5.6140    6.4700   11.0280 C.ar  321  TRP321      0.0001
     76  CH2       -4.3520    5.9710   10.6090 C.ar  321  TRP321      0.0015
     77  N         -4.3160   17.2790   13.8990 N.3   348  GLU348     -0.1245
     78  CA        -4.8390   16.2930   12.9510 C.3   348  GLU348      0.1567
     79  C         -5.9570   15.5110   13.6240 C.2   348  GLU348      0.2260
     80  O         -5.7840   15.1030   14.7550 O.2   348  GLU348     -0.2867
     81  CB        -3.7580   15.2730   12.5190 C.3   348  GLU348      0.0388
     82  CG        -2.7370   15.7950   11.5300 C.3   348  GLU348      0.1160
     83  CD        -1.7290   14.7470   11.0710 C.2   348  GLU348      0.3649
     84  OE1       -2.1170   13.5790   10.9070 O.co2 348  GLU348     -0.2457
     85  OE2       -0.5470   15.1150   10.8600 O.co2 348  GLU348     -0.2457
     86  N         -7.4140   16.3540    9.2390 N.3   395  TRP395     -0.1241
     87  CA        -6.6020   15.6570    8.2510 C.3   395  TRP395      0.1605
     88  C         -7.5730   14.9010    7.3270 C.2   395  TRP395      0.2264
     89  O         -8.2630   14.0010    7.8100 O.2   395  TRP395     -0.2867
     90  CB        -5.6130   14.6930    8.9070 C.3   395  TRP395      0.0550
     91  CG        -4.7550   14.0680    7.8850 C.ar  395  TRP395      0.0003
     92  CD1       -5.0100   12.9100    7.1720 C.ar  395  TRP395      0.0946
     93  CD2       -3.4930   14.5610    7.4200 C.ar  395  TRP395      0.0152
     94  NE1       -3.9780   12.6720    6.2940 N.ar  395  TRP395     -0.2442
     95  CE2       -3.0400   13.6730    6.4120 C.ar  395  TRP395      0.0810
     96  CE3       -2.7090   15.6890    7.7330 C.ar  395  TRP395      0.0012
     97  CZ2       -1.8340   13.8700    5.7170 C.ar  395  TRP395      0.0191
     98  CZ3       -1.4860   15.8760    7.0630 C.ar  395  TRP395      0.0001
     99  CH2       -1.0570   14.9640    6.0670 C.ar  395  TRP395      0.0015
    100  N         -0.9040    8.0370    1.1760 N.3   402  GLU402     -0.1231
    101  CA        -0.9190    7.6080    2.5720 C.3   402  GLU402      0.1699
    102  C          0.2400    6.6470    2.9070 C.2   402  GLU402      0.2592
    103  O          0.0180    5.4830    3.2590 O.2   402  GLU402     -0.2718
    104  CB        -2.2950    7.0540    2.9810 C.3   402  GLU402      0.0402
    105  CG        -2.3500    6.4840    4.4100 C.3   402  GLU402      0.1161
    106  CD        -2.0390    7.5010    5.5080 C.2   402  GLU402      0.3649
    107  OE1       -2.2970    8.7300    5.3310 O.co2 402  GLU402     -0.2457
    108  OE2       -1.5360    7.0760    6.5690 O.co2 402  GLU402     -0.2457
    109  N          1.4670    7.1570    2.7570 N.am  403  TRP403     -0.1976
    110  CA         2.6950    6.4890    3.1730 C.3   403  TRP403      0.1640
    111  C          2.7730    5.0240    2.6850 C.2   403  TRP403      0.2290
    112  O          2.6210    4.7840    1.5050 O.2   403  TRP403     -0.2864
    113  CB         2.8960    6.6830    4.6890 C.3   403  TRP403      0.0576
    114  CG         2.8460    8.1710    5.1070 C.ar  403  TRP403      0.0006
    115  CD1        1.8880    8.7880    5.8890 C.ar  403  TRP403      0.0946
    116  CD2        3.7560    9.2250    4.6990 C.ar  403  TRP403      0.0152
    117  NE1        2.1840   10.1280    6.0330 N.ar  403  TRP403     -0.2442
    118  CE2        3.3260   10.4200    5.3230 C.ar  403  TRP403      0.0810
    119  CE3        4.9250    9.2590    3.9120 C.ar  403  TRP403      0.0012
    120  CZ2        3.9840   11.6320    5.1530 C.ar  403  TRP403      0.0191
    121  CZ3        5.5970   10.4620    3.7700 C.ar  403  TRP403      0.0001
    122  CH2        5.1170   11.6380    4.3900 C.ar  403  TRP403      0.0015
    123  N         -8.2340   10.1670    2.8950 N.3   411  PHE411     -0.1241
    124  CA        -8.5210   10.9240    4.1190 C.3   411  PHE411      0.1605
    125  C         -9.1210   12.3110    3.8430 C.2   411  PHE411      0.2264
    126  O         -9.4780   13.0190    4.7770 O.2   411  PHE411     -0.2867
    127  CB        -7.2480   11.1280    4.9620 C.3   411  PHE411      0.0534
    128  CG        -6.9280    9.9830    5.8910 C.ar  411  PHE411     -0.0203
    129  CD1       -6.1590    8.9010    5.4530 C.ar  411  PHE411     -0.0042
    130  CD2       -7.3780    9.9970    7.2040 C.ar  411  PHE411     -0.0042
    131  CE1       -5.8550    7.8540    6.3180 C.ar  411  PHE411     -0.0003
    132  CE2       -7.0920    8.9620    8.0630 C.ar  411  PHE411     -0.0003
    133  CZ        -6.3330    7.8780    7.6290 C.ar  411  PHE411     -0.0000
@<TRIPOS>BOND
     1     4     3    2
     2     3     2    1
     3     2     1    1
     4     2     5    1
     5   100   101    1
     6   112   111    2
     7     5     6    1
     8   101   102    1
     9   101   104    1
    10   111   110    1
    11   109   102   am
    12   109   110    1
    13     6     7    1
    14   123   124    1
    15   102   103    2
    16   104   105    1
    17   110   113    1
    18   121   119   ar
    19   121   122   ar
    20   125   124    1
    21   125   126    2
    22   119   116   ar
    23     9     7   am
    24     7     8    2
    25   124   127    1
    26   122   120   ar
    27   105   106    1
    28   113   114    1
    29   116   114   ar
    30   116   118   ar
    31   127   128    1
    32   114   115   ar
    33   120   118   ar
    34   118   117   ar
    35   107   106   ar
    36   129   128   ar
    37   129   131   ar
    38   106   108   ar
    39    97    99   ar
    40    97    95   ar
    41   115   117   ar
    42   128   130   ar
    43    23    22    2
    44    99    98   ar
    45    22    21    1
    46    94    95   ar
    47    94    92   ar
    48   131   133   ar
    49    95    93   ar
    50    13    12    2
    51    98    96   ar
    52    92    91   ar
    53   130   132   ar
    54    24    21    1
    55    24    25    1
    56    88    89    2
    57    88    87    1
    58    12    20   am
    59    12    11    1
    60    21    20    1
    61    93    96   ar
    62    93    91   ar
    63   133   132   ar
    64    14    15    1
    65    14    11    1
    66    17    15   ar
    67    17    19   ar
    68    91    90    1
    69    30    32   ar
    70    30    27   ar
    71    15    16   ar
    72    11    10    1
    73    19    18   ar
    74    87    90    1
    75    87    86    1
    76    32    33   ar
    77    16    18   ar
    78    25    27   ar
    79    25    26   ar
    80    27    29   ar
    81    26    28   ar
    82    33    31   ar
    83    29    31   ar
    84    29    28   ar
    85    76    74   ar
    86    76    75   ar
    87    62    61    1
    88    74    72   ar
    89    85    83   ar
    90    84    83   ar
    91    75    73   ar
    92    83    82    1
    93    41    39   am
    94    60    61   ar
    95    60    58   ar
    96    72    71   ar
    97    72    70   ar
    98    82    81    1
    99    61    59   ar
   100    73    70   ar
   101    71    69   ar
   102    39    38    1
   103    39    40    2
   104    38    35    1
   105    70    68   ar
   106    63    64    1
   107    58    56   ar
   108    69    68   ar
   109    68    67    1
   110    81    78    1
   111    59    57   ar
   112    49    48   ar
   113    67    64    1
   114    78    79    1
   115    78    77    1
   116    37    36    2
   117    64    65    1
   118    35    34    1
   119    35    36    1
   120    66    65    2
   121    56    57   ar
   122    56    55    1
   123    48    50   ar
   124    48    47    1
   125    79    80    2
   126    36    42   am
   127    47    46    1
   128    55    52    1
   129    46    43    1
   130    45    44    2
   131    42    43    1
   132    43    44    1
   133    52    53    1
   134    52    51    1
   135    54    53    2
