@<TRIPOS>MOLECULE
tmp/1oinB00.pdb
 133 135 0 0 0
SMALL
GASTEIGER

@<TRIPOS>ATOM
      1  N        -17.2960  -32.4030  -14.7900 N.3    19  GLN19      -0.1245
      2  CA       -17.9840  -31.1170  -14.7360 C.3    19  GLN19       0.1566
      3  C        -17.5540  -30.1260  -15.8310 C.2    19  GLN19       0.2260
      4  O        -18.3250  -29.2120  -16.1830 O.2    19  GLN19      -0.2867
      5  CB       -17.8280  -30.4430  -13.3670 C.3    19  GLN19       0.0367
      6  CG       -18.2030  -31.3700  -12.2540 C.3    19  GLN19       0.0905
      7  CD       -18.4900  -30.6730  -11.0010 C.2    19  GLN19       0.2608
      8  OE1      -17.7190  -30.7990  -10.0770 O.2    19  GLN19      -0.2717
      9  NE2      -19.6160  -29.9360  -10.9360 N.am   19  GLN19      -0.0878
     10  N        -13.3860  -38.4130   -8.5980 N.3   120  HIS120     -0.1226
     11  CA       -14.3680  -37.3300   -8.3610 C.3   120  HIS120      0.1752
     12  C        -15.6630  -37.7140   -9.0920 C.2   120  HIS120      0.2596
     13  O        -16.1890  -36.9170   -9.8910 O.2   120  HIS120     -0.2718
     14  CB       -13.8270  -35.9570   -8.8810 C.3   120  HIS120      0.0759
     15  CG       -14.5060  -34.7640   -8.2880 C.ar  120  HIS120      0.0818
     16  ND1      -13.8050  -33.7290   -7.7010 N.ar  120  HIS120     -0.2268
     17  CD2      -15.8140  -34.4190   -8.2130 C.ar  120  HIS120      0.1154
     18  CE1      -14.6540  -32.8050   -7.2790 C.ar  120  HIS120      0.1986
     19  NE2      -15.8810  -33.2080   -7.5700 N.ar  120  HIS120     -0.2212
     20  N        -16.0850  -38.9760   -8.8840 N.am  121  TRP121     -0.1976
     21  CA       -17.4550  -39.4250   -9.0630 C.3   121  TRP121      0.1640
     22  C        -17.7070  -40.0520  -10.4200 C.2   121  TRP121      0.2290
     23  O        -18.7560  -40.6290  -10.5980 O.2   121  TRP121     -0.2864
     24  CB       -18.4650  -38.3430   -8.7880 C.3   121  TRP121      0.0576
     25  CG       -18.3370  -37.6280   -7.4680 C.ar  121  TRP121      0.0006
     26  CD1      -17.4210  -37.8560   -6.4490 C.ar  121  TRP121      0.0946
     27  CD2      -19.1860  -36.5530   -7.0000 C.ar  121  TRP121      0.0152
     28  NE1      -17.6690  -36.9930   -5.3920 N.ar  121  TRP121     -0.2442
     29  CE2      -18.7200  -36.1660   -5.7170 C.ar  121  TRP121      0.0810
     30  CE3      -20.2810  -35.8590   -7.5540 C.ar  121  TRP121      0.0012
     31  CZ2      -19.3580  -35.1490   -4.9510 C.ar  121  TRP121      0.0191
     32  CZ3      -20.8800  -34.8210   -6.8230 C.ar  121  TRP121      0.0001
     33  CH2      -20.4110  -34.4730   -5.5310 C.ar  121  TRP121      0.0015
     34  N        -12.9610  -37.6700   -3.6080 N.3   164  ASN164     -0.1225
     35  CA       -13.6740  -36.4350   -3.3150 C.3   164  ASN164      0.1785
     36  C        -15.0270  -36.7230   -2.6330 C.2   164  ASN164      0.2597
     37  O        -15.8470  -37.4530   -3.1690 O.2   164  ASN164     -0.2718
     38  CB       -13.8910  -35.6230   -4.6070 C.3   164  ASN164      0.1169
     39  CG       -14.6760  -34.3340   -4.3560 C.2   164  ASN164      0.2627
     40  OD1      -14.0940  -33.3450   -3.9060 O.2   164  ASN164     -0.2716
     41  ND2      -15.9890  -34.3510   -4.6180 N.am  164  ASN164     -0.0877
     42  N        -15.2090  -36.1990   -1.4240 N.am  165  GLU165     -0.1979
     43  CA       -16.4670  -36.2660   -0.7070 C.3   165  GLU165      0.1602
     44  C        -17.1570  -37.6680   -0.6840 C.2   165  GLU165      0.2287
     45  O        -18.2870  -37.7920   -1.1350 O.2   165  GLU165     -0.2864
     46  CB       -17.4610  -35.1500   -1.1840 C.3   165  GLU165      0.0415
     47  CG       -16.8160  -33.7550   -1.3540 C.3   165  GLU165      0.1163
     48  CD       -17.8210  -32.6520   -1.7410 C.2   165  GLU165      0.3649
     49  OE1      -18.6750  -32.9120   -2.6140 O.co2 165  GLU165     -0.2457
     50  OE2      -17.7870  -31.5240   -1.1800 O.co2 165  GLU165     -0.2457
     51  N        -19.4300  -24.7930    2.6580 N.3   293  TYR293     -0.1241
     52  CA       -20.2650  -23.8190    1.9840 C.3   293  TYR293      0.1605
     53  C        -21.2950  -23.1810    2.9140 C.2   293  TYR293      0.2264
     54  O        -21.6060  -21.9990    2.7540 O.2   293  TYR293     -0.2867
     55  CB       -20.9980  -24.4370    0.7850 C.3   293  TYR293      0.0534
     56  CG       -20.1460  -24.9330   -0.3690 C.ar  293  TYR293     -0.0201
     57  CD1      -19.4600  -24.0480   -1.1940 C.ar  293  TYR293     -0.0009
     58  CD2      -20.1040  -26.2960   -0.7000 C.ar  293  TYR293     -0.0009
     59  CE1      -18.7160  -24.4990   -2.2890 C.ar  293  TYR293      0.0417
     60  CE2      -19.3540  -26.7550   -1.7820 C.ar  293  TYR293      0.0417
     61  CZ       -18.6780  -25.8600   -2.5790 C.ar  293  TYR293      0.1957
     62  OH       -17.9330  -26.3230   -3.6490 O.3   293  TYR293     -0.2866
     63  N        -28.4990  -21.9580   -0.0890 N.3   322  TRP322     -0.1241
     64  CA       -27.6150  -22.3060    1.0210 C.3   322  TRP322      0.1605
     65  C        -27.3500  -21.0720    1.9030 C.2   322  TRP322      0.2264
     66  O        -26.9380  -20.0370    1.3950 O.2   322  TRP322     -0.2867
     67  CB       -26.2730  -22.8390    0.4810 C.3   322  TRP322      0.0550
     68  CG       -26.3390  -24.1550   -0.3340 C.ar  322  TRP322      0.0003
     69  CD1      -27.3980  -25.0240   -0.4430 C.ar  322  TRP322      0.0946
     70  CD2      -25.2760  -24.7240   -1.1220 C.ar  322  TRP322      0.0152
     71  NE1      -27.0630  -26.0650   -1.2780 N.ar  322  TRP322     -0.2442
     72  CE2      -25.7660  -25.9210   -1.6900 C.ar  322  TRP322      0.0810
     73  CE3      -23.9440  -24.3390   -1.3990 C.ar  322  TRP322      0.0012
     74  CZ2      -24.9730  -26.7520   -2.5030 C.ar  322  TRP322      0.0191
     75  CZ3      -23.1540  -25.1510   -2.2370 C.ar  322  TRP322      0.0001
     76  CH2      -23.6700  -26.3450   -2.7730 C.ar  322  TRP322      0.0015
     77  N        -12.4710  -26.8000   -1.0790 N.3   349  GLU349     -0.1245
     78  CA       -13.5890  -26.2080   -1.8020 C.3   349  GLU349      0.1567
     79  C        -14.1450  -25.1010   -0.9480 C.2   349  GLU349      0.2260
     80  O        -14.4540  -25.3370    0.2000 O.2   349  GLU349     -0.2867
     81  CB       -14.7530  -27.1920   -1.8820 C.3   349  GLU349      0.0388
     82  CG       -14.8720  -28.0000   -3.1530 C.3   349  GLU349      0.1160
     83  CD       -16.2400  -28.6110   -3.2550 C.2   349  GLU349      0.3649
     84  OE1      -16.9650  -28.6450   -2.2810 O.co2 349  GLU349     -0.2457
     85  OE2      -16.6460  -29.0890   -4.3980 O.co2 349  GLU349     -0.2457
     86  N        -13.9450  -23.0640   -5.3140 N.3   396  TRP396     -0.1241
     87  CA       -14.7460  -23.8140   -6.2380 C.3   396  TRP396      0.1605
     88  C        -15.6030  -22.7460   -6.8710 C.2   396  TRP396      0.2264
     89  O        -16.4240  -22.1940   -6.1760 O.2   396  TRP396     -0.2867
     90  CB       -15.7020  -24.8290   -5.5310 C.3   396  TRP396      0.0550
     91  CG       -16.4180  -25.5830   -6.6090 C.ar  396  TRP396      0.0003
     92  CD1      -17.6390  -25.2860   -7.1710 C.ar  396  TRP396      0.0946
     93  CD2      -15.9100  -26.7030   -7.3260 C.ar  396  TRP396      0.0152
     94  NE1      -17.9040  -26.1580   -8.2070 N.ar  396  TRP396     -0.2442
     95  CE2      -16.8490  -27.0210   -8.3360 C.ar  396  TRP396      0.0810
     96  CE3      -14.7400  -27.4650   -7.2300 C.ar  396  TRP396      0.0012
     97  CZ2      -16.6820  -28.0830   -9.1850 C.ar  396  TRP396      0.0191
     98  CZ3      -14.5640  -28.5080   -8.0860 C.ar  396  TRP396      0.0001
     99  CH2      -15.5310  -28.8260   -9.0410 C.ar  396  TRP396      0.0015
    100  N        -23.2210  -28.5460  -12.8090 N.3   403  GLU403     -0.1231
    101  CA       -23.4310  -28.7400  -11.3610 C.3   403  GLU403      0.1699
    102  C        -24.3140  -29.9680  -11.0370 C.2   403  GLU403      0.2592
    103  O        -25.3520  -29.8680  -10.3500 O.2   403  GLU403     -0.2718
    104  CB       -23.9950  -27.4720  -10.7300 C.3   403  GLU403      0.0402
    105  CG       -24.2360  -27.5570   -9.2000 C.3   403  GLU403      0.1161
    106  CD       -23.0000  -27.9620   -8.3390 C.2   403  GLU403      0.3649
    107  OE1      -21.8260  -27.7660   -8.7430 O.co2 403  GLU403     -0.2457
    108  OE2      -23.2130  -28.4480   -7.1960 O.co2 403  GLU403     -0.2457
    109  N        -23.8990  -31.1070  -11.5820 N.am  404  TRP404     -0.1976
    110  CA       -24.4840  -32.4260  -11.2620 C.3   404  TRP404      0.1640
    111  C        -25.9920  -32.4370  -11.5150 C.2   404  TRP404      0.2290
    112  O        -26.4240  -32.0640  -12.6140 O.2   404  TRP404     -0.2864
    113  CB       -24.0620  -32.8560   -9.8480 C.3   404  TRP404      0.0576
    114  CG       -22.5030  -32.8310   -9.6480 C.ar  404  TRP404      0.0006
    115  CD1      -21.8040  -31.9970   -8.8240 C.ar  404  TRP404      0.0946
    116  CD2      -21.5160  -33.6750  -10.2730 C.ar  404  TRP404      0.0152
    117  NE1      -20.4590  -32.2660   -8.8830 N.ar  404  TRP404     -0.2442
    118  CE2      -20.2490  -33.2960   -9.7590 C.ar  404  TRP404      0.0810
    119  CE3      -21.5660  -34.7120  -11.2360 C.ar  404  TRP404      0.0012
    120  CZ2      -19.0600  -33.8980  -10.1600 C.ar  404  TRP404      0.0191
    121  CZ3      -20.3630  -35.3250  -11.6150 C.ar  404  TRP404      0.0001
    122  CH2      -19.1390  -34.9100  -11.0910 C.ar  404  TRP404      0.0015
    123  N        -20.7790  -21.4010  -10.3690 N.3   412  PHE412     -0.1241
    124  CA       -19.9210  -21.2930   -9.1760 C.3   412  PHE412      0.1605
    125  C        -18.6120  -20.6350   -9.5220 C.2   412  PHE412      0.2264
    126  O        -17.8360  -20.3350   -8.6100 O.2   412  PHE412     -0.2867
    127  CB       -19.5700  -22.6850   -8.5480 C.3   412  PHE412      0.0534
    128  CG       -20.6340  -23.2260   -7.6160 C.ar  412  PHE412     -0.0203
    129  CD1      -21.7140  -23.9580   -8.1190 C.ar  412  PHE412     -0.0042
    130  CD2      -20.5410  -23.0430   -6.2490 C.ar  412  PHE412     -0.0042
    131  CE1      -22.6920  -24.4520   -7.2630 C.ar  412  PHE412     -0.0003
    132  CE2      -21.5200  -23.5520   -5.3890 C.ar  412  PHE412     -0.0003
    133  CZ       -22.6030  -24.2290   -5.9000 C.ar  412  PHE412     -0.0000
@<TRIPOS>BOND
     1     4     3    2
     2     3     2    1
     3     1     2    1
     4     2     5    1
     5     5     6    1
     6   100   101    1
     7   112   111    2
     8     6     7    1
     9   121   119   ar
    10   121   122   ar
    11   109   110    1
    12   109   102   am
    13   111   110    1
    14   101   102    1
    15   101   104    1
    16   110   113    1
    17   119   116   ar
    18   122   120   ar
    19   102   103    2
    20     7     9   am
    21     7     8    2
    22   104   105    1
    23    23    22    2
    24    22    21    1
    25   123   124    1
    26   116   118   ar
    27   116   114   ar
    28   120   118   ar
    29    13    12    2
    30   113   114    1
    31   118   117   ar
    32   114   115   ar
    33   125   124    1
    34   125   126    2
    35   105   106    1
    36    97    99   ar
    37    97    95   ar
    38   124   127    1
    39    12    20   am
    40    12    11    1
    41    21    20    1
    42    21    24    1
    43    99    98   ar
    44   117   115   ar
    45    14    11    1
    46    14    15    1
    47    24    25    1
    48   107   106   ar
    49    10    11    1
    50   127   128    1
    51   106   108   ar
    52    95    94   ar
    53    95    93   ar
    54    15    17   ar
    55    15    16   ar
    56    17    19   ar
    57    94    92   ar
    58   129   128   ar
    59   129   131   ar
    60    98    96   ar
    61    16    18   ar
    62   128   130   ar
    63    19    18   ar
    64    30    27   ar
    65    30    32   ar
    66    25    27   ar
    67    25    26   ar
    68    93    96   ar
    69    93    91   ar
    70   131   133   ar
    71    92    91   ar
    72    27    29   ar
    73    88    87    1
    74    88    89    2
    75    32    33   ar
    76    91    90    1
    77    26    28   ar
    78   130   132   ar
    79    87    90    1
    80    87    86    1
    81   133   132   ar
    82    29    28   ar
    83    29    31   ar
    84    33    31   ar
    85    41    39   am
    86    38    39    1
    87    38    35    1
    88    85    83   ar
    89    39    40    2
    90    62    61    1
    91    34    35    1
    92    35    36    1
    93    83    82    1
    94    83    84   ar
    95    37    36    2
    96    82    81    1
    97    76    74   ar
    98    76    75   ar
    99    36    42   am
   100    49    48   ar
   101    61    59   ar
   102    61    60   ar
   103    74    72   ar
   104    59    57   ar
   105    75    73   ar
   106    81    78    1
   107    78    77    1
   108    78    79    1
   109    60    58   ar
   110    48    47    1
   111    48    50   ar
   112    72    71   ar
   113    72    70   ar
   114    42    43    1
   115    73    70   ar
   116    47    46    1
   117    71    69   ar
   118    57    56   ar
   119    46    43    1
   120    45    44    2
   121    70    68   ar
   122    79    80    2
   123    43    44    1
   124    58    56   ar
   125    69    68   ar
   126    56    55    1
   127    68    67    1
   128    63    64    1
   129    67    64    1
   130    55    52    1
   131    64    65    1
   132    66    65    2
   133    52    51    1
   134    52    53    1
   135    54    53    2
