@<TRIPOS>MOLECULE
tmp/1oioB00.pdb
 79 77 0 0 0
SMALL
GASTEIGER

@<TRIPOS>ATOM
      1  N        -13.0230    2.3940   54.2070 N.3    43  ALA43      -0.1231
      2  CA       -14.2080    1.7700   53.6230 C.3    43  ALA43       0.1694
      3  C        -15.4100    1.7380   54.5490 C.2    43  ALA43       0.2592
      4  O        -16.5300    1.4970   54.1070 O.2    43  ALA43      -0.2718
      5  CB       -13.8730    0.3500   53.1760 C.3    43  ALA43       0.0304
      6  N        -15.1850    2.0090   55.8280 N.am   44  ASN44      -0.1974
      7  CA       -16.2600    1.9310   56.8060 C.3    44  ASN44       0.1688
      8  C        -16.4340    3.1810   57.6560 C.2    44  ASN44       0.2292
      9  O        -15.9510    3.2380   58.7830 O.2    44  ASN44      -0.2864
     10  CB       -15.9870    0.7180   57.6930 C.3    44  ASN44       0.1181
     11  CG       -15.6480   -0.5150   56.8800 C.2    44  ASN44       0.2629
     12  OD1      -16.5060   -1.0830   56.2030 O.2    44  ASN44      -0.2716
     13  ND2      -14.3870   -0.9250   56.9260 N.am   44  ASN44      -0.0877
     14  N        -15.7610    8.3320   46.8910 N.3    88  ASP88      -0.1225
     15  CA       -16.0060    7.0270   47.4870 C.3    88  ASP88       0.1805
     16  C        -14.6980    6.3750   47.9310 C.2    88  ASP88       0.2598
     17  O        -13.6080    6.8630   47.6230 O.2    88  ASP88      -0.2718
     18  CB       -16.7490    6.1370   46.4810 C.3    88  ASP88       0.1424
     19  CG       -17.4010    4.9320   47.1310 C.2    88  ASP88       0.3668
     20  OD1      -17.8050    5.0270   48.3110 O.co2  88  ASP88      -0.2456
     21  OD2      -17.5270    3.8940   46.4480 O.co2  88  ASP88      -0.2456
     22  N        -14.8250    5.2780   48.6650 N.am   89  THR89      -0.1953
     23  CA       -13.6870    4.5460   49.2110 C.3    89  THR89       0.1897
     24  C        -12.4430    4.4230   48.3450 C.2    89  THR89       0.2313
     25  O        -11.3600    4.8430   48.7470 O.2    89  THR89      -0.2863
     26  CB       -14.1200    3.1370   49.6180 C.3    89  THR89       0.1794
     27  OG1      -15.1890    3.2490   50.5620 O.3    89  THR89      -0.2208
     28  CG2      -12.9530    2.3650   50.2530 C.3    89  THR89       0.0378
     29  N        -19.7140   11.8320   45.1270 N.3   106  PHE106     -0.1241
     30  CA       -20.1000   10.4350   44.9500 C.3   106  PHE106      0.1605
     31  C        -21.6120   10.4100   44.7560 C.2   106  PHE106      0.2264
     32  O        -22.3730   10.6890   45.6830 O.2   106  PHE106     -0.2867
     33  CB       -19.7040    9.5700   46.1550 C.3   106  PHE106      0.0534
     34  CG       -20.2100    8.1490   46.0740 C.ar  106  PHE106     -0.0203
     35  CD1      -20.1540    7.4360   44.8790 C.ar  106  PHE106     -0.0042
     36  CD2      -20.7610    7.5330   47.1870 C.ar  106  PHE106     -0.0042
     37  CE1      -20.6460    6.1300   44.8020 C.ar  106  PHE106     -0.0003
     38  CE2      -21.2500    6.2420   47.1220 C.ar  106  PHE106     -0.0003
     39  CZ       -21.1960    5.5340   45.9290 C.ar  106  PHE106     -0.0000
     40  N        -25.3130    5.2190   46.2400 N.3   109  TRP109     -0.1241
     41  CA       -25.8390    3.8780   46.0110 C.3   109  TRP109      0.1605
     42  C        -26.9030    3.5850   47.0540 C.2   109  TRP109      0.2264
     43  O        -26.9860    4.2690   48.0730 O.2   109  TRP109     -0.2867
     44  CB       -24.7310    2.8220   46.1130 C.3   109  TRP109      0.0550
     45  CG       -24.2020    2.5700   47.5100 C.ar  109  TRP109      0.0003
     46  CD1      -23.6160    3.4810   48.3470 C.ar  109  TRP109      0.0946
     47  CD2      -24.1460    1.3070   48.1920 C.ar  109  TRP109      0.0152
     48  NE1      -23.1920    2.8620   49.5030 N.ar  109  TRP109     -0.2442
     49  CE2      -23.5040    1.5290   49.4330 C.ar  109  TRP109      0.0810
     50  CE3      -24.5720    0.0090   47.8720 C.ar  109  TRP109      0.0012
     51  CZ2      -23.2760    0.4980   50.3560 C.ar  109  TRP109      0.0191
     52  CZ3      -24.3430   -1.0180   48.7930 C.ar  109  TRP109      0.0001
     53  CH2      -23.7000   -0.7640   50.0160 C.ar  109  TRP109      0.0015
     54  N        -24.4990   -3.0060   55.1760 N.3   116  SER116     -0.1202
     55  CA       -23.1830   -2.7670   54.6160 C.3   116  SER116      0.2020
     56  C        -22.6860   -1.4150   55.0780 C.2   116  SER116      0.2619
     57  O        -23.2480   -0.8230   56.0000 O.2   116  SER116     -0.2717
     58  CB       -23.1980   -2.8350   53.0920 C.3   116  SER116      0.2103
     59  OG       -21.8660   -2.8470   52.6010 O.3   116  SER116     -0.2182
     60  N        -21.6290   -0.9220   54.4450 N.am  117  THR117     -0.1938
     61  CA       -21.0640    0.3510   54.8440 C.3   117  THR117      0.2028
     62  C        -20.7890    1.3040   53.6920 C.2   117  THR117      0.2642
     63  O        -20.7420    0.9130   52.5240 O.2   117  THR117     -0.2714
     64  CB       -19.7420    0.1420   55.5990 C.3   117  THR117      0.1808
     65  OG1      -18.8270   -0.5800   54.7600 O.3   117  THR117     -0.2208
     66  CG2      -19.9790   -0.6500   56.8860 C.3   117  THR117      0.0379
     67  N        -20.6170    2.5710   54.0520 N.am  118  GLN118     -0.1963
     68  CA       -20.2910    3.6270   53.1030 C.3   118  GLN118      0.1733
     69  C        -18.9510    4.1830   53.5750 C.2   118  GLN118      0.2616
     70  O        -18.7860    4.5080   54.7600 O.2   118  GLN118     -0.2715
     71  CB       -21.3500    4.7360   53.1420 C.3   118  GLN118      0.0408
     72  CG       -21.0000    5.9730   52.3110 C.3   118  GLN118      0.0908
     73  CD       -20.8110    5.6570   50.8380 C.2   118  GLN118      0.2608
     74  OE1      -21.6570    5.0140   50.2200 O.2   118  GLN118     -0.2717
     75  NE2      -19.7040    6.1200   50.2690 N.am  118  GLN118     -0.0878
     76  N        -17.9940    4.2740   52.6560 N.am  119  GLY119     -0.1955
     77  CA       -16.6860    4.7990   53.0060 C.3   119  GLY119      0.1869
     78  C        -16.3740    6.0520   52.2140 C.2   119  GLY119      0.2309
     79  O        -17.2630    6.6450   51.6100 O.2   119  GLY119     -0.2863
@<TRIPOS>BOND
     1    31    30    1
     2    31    32    2
     3    37    35   ar
     4    37    39   ar
     5    35    34   ar
     6    30    29    1
     7    30    33    1
     8    39    38   ar
     9    41    44    1
    10    41    40    1
    11    41    42    1
    12    34    33    1
    13    34    36   ar
    14    44    45    1
    15    21    19   ar
    16    18    19    1
    17    18    15    1
    18    14    15    1
    19    42    43    2
    20    38    36   ar
    21    19    20   ar
    22    15    16    1
    23    45    47   ar
    24    45    46   ar
    25    17    16    2
    26    50    47   ar
    27    50    52   ar
    28    16    22   am
    29    47    49   ar
    30    24    25    2
    31    24    23    1
    32    46    48   ar
    33    22    23    1
    34    52    53   ar
    35    23    26    1
    36    49    48   ar
    37    49    51   ar
    38    26    28    1
    39    26    27    1
    40    53    51   ar
    41    74    73    2
    42    75    73   am
    43    73    72    1
    44    79    78    2
    45    78    77    1
    46    72    71    1
    47    63    62    2
    48    59    58    1
    49    76    77    1
    50    76    69   am
    51    58    55    1
    52    68    71    1
    53    68    69    1
    54    68    67    1
    55     5     2    1
    56    69    70    2
    57     2     1    1
    58     2     3    1
    59    62    67   am
    60    62    61    1
    61     4     3    2
    62    60    61    1
    63    60    56   am
    64     3     6   am
    65    55    56    1
    66    55    54    1
    67    65    64    1
    68    61    64    1
    69    56    57    2
    70    64    66    1
    71     6     7    1
    72    12    11    2
    73     7     8    1
    74     7    10    1
    75    11    13   am
    76    11    10    1
    77     8     9    2
