@<TRIPOS>MOLECULE
tmp/1oiqA00.pdb
 144 138 0 0 0
SMALL
GASTEIGER

@<TRIPOS>ATOM
      1  N         14.2700  -13.9200    6.1980 N.3    10  ILE10      -0.1231
      2  CA        13.2650  -13.0650    6.8410 C.3    10  ILE10       0.1696
      3  C         13.1550  -11.7330    6.1070 C.2    10  ILE10       0.2631
      4  O         12.0600  -11.2380    5.8550 O.2    10  ILE10      -0.2714
      5  CB        13.6840  -12.7670    8.3280 C.3    10  ILE10       0.0266
      6  CG1       13.1360  -13.8200    9.2950 C.3    10  ILE10       0.0019
      7  CG2       13.2460  -11.3370    8.7740 C.3    10  ILE10       0.0020
      8  CD1       13.4690  -13.5420   10.7820 C.3    10  ILE10       0.0001
      9  N         14.3060  -11.1130    5.8490 N.am   11  GLY11      -0.1732
     10  CA        14.3430   -9.8070    5.2010 C.2    11  GLY11       0.1340
     11  C         15.6900   -9.0970    5.2210 C.2    11  GLY11       0.2521
     12  O         16.7420   -9.7260    5.3010 O.2    11  GLY11      -0.2816
     13  N         19.0460  -11.0680    7.3800 N.3    14  VAL14      -0.1245
     14  CA        18.4200  -11.6040    8.5980 C.3    14  VAL14       0.1561
     15  C         17.6540  -12.9250    8.3300 C.2    14  VAL14       0.2260
     16  O         16.9480  -13.0590    7.3330 O.2    14  VAL14      -0.2867
     17  CB        17.4950  -10.5600    9.2590 C.3    14  VAL14       0.0252
     18  CG1       17.0840  -11.0020   10.6470 C.3    14  VAL14       0.0019
     19  CG2       18.2040   -9.2180    9.3590 C.3    14  VAL14       0.0019
     20  N         15.8120  -14.8520   15.4920 N.3    27  ALA27      -0.1245
     21  CA        16.1240  -14.0890   14.2990 C.3    27  ALA27       0.1562
     22  C         17.6230  -13.8580   14.3130 C.2    27  ALA27       0.2260
     23  O         18.1550  -13.2530   15.2550 O.2    27  ALA27      -0.2867
     24  CB        15.3740  -12.7620   14.2960 C.3    27  ALA27       0.0290
     25  N         21.0470  -12.3710   12.5860 N.3    29  LYS29      -0.1245
     26  CA        21.6180  -11.3400   11.7120 C.3    29  LYS29       0.1561
     27  C         23.1390  -11.5560   11.4650 C.2    29  LYS29       0.2260
     28  O         23.9390  -11.4560   12.3950 O.2    29  LYS29      -0.2867
     29  CB        21.3890   -9.9570   12.3280 C.3    29  LYS29       0.0271
     30  CG        21.7700   -8.8120   11.4050 C.3    29  LYS29       0.0035
     31  CD        21.3010   -7.4530   11.8910 C.3    29  LYS29       0.0206
     32  CE        19.8360   -7.1900   11.5290 C.3    29  LYS29       0.1093
     33  NZ        19.3360   -5.7930   11.8410 N.3    29  LYS29      -0.1314
     34  N         13.1880   -5.0710   20.7260 N.3    49  VAL49      -0.1245
     35  CA        13.4750   -6.4650   20.3710 C.3    49  VAL49       0.1561
     36  C         14.7110   -6.9060   21.1540 C.2    49  VAL49       0.2260
     37  O         15.7270   -6.2150   21.1870 O.2    49  VAL49      -0.2867
     38  CB        13.7030   -6.6280   18.8500 C.3    49  VAL49       0.0252
     39  CG1       14.0190   -8.0540   18.4530 C.3    49  VAL49       0.0019
     40  CG2       12.4570   -6.2250   18.1220 C.3    49  VAL49       0.0019
     41  N         18.7940  -12.3430   17.8500 N.3    62  PHE62      -0.1227
     42  CA        17.6680  -11.6180   18.4390 C.3    62  PHE62       0.1736
     43  C         16.4880  -12.5810   18.7610 C.2    62  PHE62       0.2595
     44  O         16.4230  -13.7280   18.3060 O.2    62  PHE62      -0.2718
     45  CB        17.1550  -10.5200   17.4740 C.3    62  PHE62       0.0547
     46  CG        18.0990   -9.3380   17.2890 C.ar   62  PHE62      -0.0202
     47  CD1       18.9560   -9.2750   16.1940 C.ar   62  PHE62      -0.0042
     48  CD2       18.0880   -8.2710   18.1820 C.ar   62  PHE62      -0.0042
     49  CE1       19.8010   -8.1880   16.0110 C.ar   62  PHE62      -0.0003
     50  CE2       18.9390   -7.1800   18.0020 C.ar   62  PHE62      -0.0003
     51  CZ        19.8030   -7.1440   16.9300 C.ar   62  PHE62      -0.0000
     52  N         15.5750  -12.0780   19.5770 N.am   63  GLU63      -0.1965
     53  CA        14.2450  -12.6280   19.7670 C.3    63  GLU63       0.1733
     54  C         13.4810  -12.5800   18.4440 C.2    63  GLU63       0.2616
     55  O         13.6210  -11.6170   17.6940 O.2    63  GLU63      -0.2715
     56  CB        13.5400  -11.7410   20.7880 C.3    63  GLU63       0.0429
     57  CG        12.0820  -12.0190   21.0480 C.3    63  GLU63       0.1163
     58  CD        11.4480  -10.9110   21.8760 C.2    63  GLU63       0.3649
     59  OE1       10.5730  -11.2650   22.6950 O.co2  63  GLU63      -0.2457
     60  OE2       11.8440   -9.7150   21.7520 O.co2  63  GLU63      -0.2457
     61  N         12.6730  -13.5990   18.1640 N.am   64  PHE64      -0.1960
     62  CA        11.8480  -13.6210   16.9440 C.3    64  PHE64       0.1771
     63  C         10.4130  -13.1400   17.2090 C.2    64  PHE64       0.2619
     64  O          9.7990  -13.5050   18.2210 O.2    64  PHE64      -0.2715
     65  CB        11.8120  -15.0230   16.3520 C.3    64  PHE64       0.0574
     66  CG        10.9980  -15.1350   15.1090 C.ar   64  PHE64      -0.0200
     67  CD1       11.5280  -14.7410   13.8710 C.ar   64  PHE64      -0.0042
     68  CD2        9.7100  -15.6550   15.1540 C.ar   64  PHE64      -0.0042
     69  CE1       10.7940  -14.8590   12.7180 C.ar   64  PHE64      -0.0003
     70  CE2        8.9450  -15.7750   13.9740 C.ar   64  PHE64      -0.0003
     71  CZ         9.4950  -15.3800   12.7520 C.ar   64  PHE64      -0.0000
     72  N          9.9120  -12.3050   16.2900 N.am   65  LEU65      -0.1963
     73  CA         8.5120  -11.9070   16.2470 C.3    65  LEU65       0.1728
     74  C          7.9400  -12.1750   14.8550 C.2    65  LEU65       0.2616
     75  O          8.6490  -12.0820   13.8390 O.2    65  LEU65      -0.2715
     76  CB         8.3560  -10.4390   16.6090 C.3    65  LEU65       0.0311
     77  CG         8.3420  -10.1200   18.1160 C.3    65  LEU65       0.0022
     78  CD1        9.7420   -9.9190   18.6340 C.3    65  LEU65       0.0001
     79  CD2        7.5380   -8.8630   18.3860 C.3    65  LEU65       0.0001
     80  N          6.6530  -12.5050   14.8130 N.am   66  HIS66      -0.1959
     81  CA         6.0700  -13.1090   13.6190 C.3    66  HIS66       0.1787
     82  C          5.6740  -12.1260   12.5210 C.2    66  HIS66       0.2620
     83  O          5.4760  -12.5370   11.3880 O.2    66  HIS66      -0.2715
     84  CB         4.8560  -13.9760   13.9850 C.3    66  HIS66       0.0785
     85  CG         5.2160  -15.2810   14.6180 C.ar   66  HIS66       0.0821
     86  ND1        5.5940  -15.3840   15.9390 N.ar   66  HIS66      -0.2267
     87  CD2        5.2630  -16.5370   14.1100 C.ar   66  HIS66       0.1154
     88  CE1        5.8570  -16.6490   16.2210 C.ar   66  HIS66       0.1986
     89  NE2        5.6660  -17.3690   15.1300 N.ar   66  HIS66      -0.2212
     90  N          5.5360  -10.8410   12.8150 N.am   67  GLN67      -0.1963
     91  CA         5.1930   -9.9420   11.7080 C.3    67  GLN67       0.1733
     92  C          5.7130   -8.5100   11.8200 C.2    67  GLN67       0.2616
     93  O          5.8750   -7.9890   12.9040 O.2    67  GLN67      -0.2715
     94  CB         3.6770   -9.9650   11.4490 C.3    67  GLN67       0.0408
     95  CG         3.3240   -9.4250   10.0950 C.3    67  GLN67       0.0908
     96  CD         1.9000   -9.7200    9.6960 C.2    67  GLN67       0.2608
     97  OE1        1.5760  -10.8290    9.2260 O.2    67  GLN67      -0.2717
     98  NE2        1.0330   -8.7330    9.8870 N.am   67  GLN67      -0.0878
     99  N          5.9800   -7.8900   10.6700 N.am   68  ASP68      -0.1971
    100  CA         6.4090   -6.5040   10.6510 C.3    68  ASP68       0.1709
    101  C          5.2230   -5.5750   10.3290 C.2    68  ASP68       0.2293
    102  O          4.2100   -6.0270    9.8050 O.2    68  ASP68      -0.2864
    103  CB         7.6340   -6.3250    9.7340 C.3    68  ASP68       0.1436
    104  CG         7.3260   -6.5000    8.2540 C.2    68  ASP68       0.3671
    105  OD1        6.7230   -5.5980    7.6560 O.co2  68  ASP68      -0.2456
    106  OD2        7.6980   -7.4840    7.6010 O.co2  68  ASP68      -0.2456
    107  N          9.1720   -1.3170    8.1560 N.3   113  GLN113     -0.1231
    108  CA         9.8520   -2.6250    8.0260 C.3   113  GLN113      0.1698
    109  C         10.5770   -3.1220    9.2650 C.2   113  GLN113      0.2592
    110  O         10.6940   -4.3300    9.4410 O.2   113  GLN113     -0.2718
    111  CB        10.9030   -2.5750    6.9220 C.3   113  GLN113      0.0381
    112  CG        10.3340   -2.5330    5.5150 C.3   113  GLN113      0.0905
    113  CD        11.2780   -3.1730    4.5090 C.2   113  GLN113      0.2608
    114  OE1       12.5090   -3.0800    4.6650 O.2   113  GLN113     -0.2717
    115  NE2       10.7180   -3.8230    3.4790 N.am  113  GLN113     -0.0878
    116  N         11.1070   -2.2180   10.0950 N.am  114  ASN114     -0.1974
    117  CA        11.8100   -2.6470   11.3010 C.3   114  ASN114      0.1688
    118  C         11.0050   -2.5360   12.5940 C.2   114  ASN114      0.2292
    119  O         11.5610   -2.6190   13.6830 O.2   114  ASN114     -0.2864
    120  CB        13.2320   -2.0260   11.4270 C.3   114  ASN114      0.1181
    121  CG        13.2620   -0.5200   11.3230 C.2   114  ASN114      0.2629
    122  OD1       14.1230    0.0360   10.6370 O.2   114  ASN114     -0.2716
    123  ND2       12.3750    0.1500   12.0350 N.am  114  ASN114     -0.0877
    124  N          8.2410   -4.4430   14.7420 N.3   116  LEU116     -0.1245
    125  CA         7.7490   -5.8030   14.8560 C.3   116  LEU116      0.1561
    126  C          6.5870   -5.9600   15.8450 C.2   116  LEU116      0.2260
    127  O          6.5860   -5.3400   16.9160 O.2   116  LEU116     -0.2867
    128  CB         8.8950   -6.6930   15.2800 C.3   116  LEU116      0.0270
    129  CG        10.2080   -6.5050   14.5160 C.3   116  LEU116      0.0019
    130  CD1       11.2490   -7.3980   15.1660 C.3   116  LEU116      0.0001
    131  CD2       10.0720   -6.8340   13.0200 C.3   116  LEU116      0.0001
    132  N         13.4490   -2.4590   16.4080 N.3   126  ALA126     -0.1231
    133  CA        14.5690   -3.3210   15.9760 C.3   126  ALA126      0.1694
    134  C         15.5260   -2.5480   15.0470 C.2   126  ALA126      0.2592
    135  O         15.1290   -1.5630   14.4200 O.2   126  ALA126     -0.2718
    136  CB        14.0330   -4.5240   15.2630 C.3   126  ALA126      0.0304
    137  N         16.7630   -3.0270   14.9160 N.am  127  ASP127     -0.1974
    138  CA        17.9080   -2.2400   14.3670 C.3   127  ASP127      0.1709
    139  C         18.4040   -1.0770   15.2670 C.2   127  ASP127      0.2293
    140  O         19.2450   -0.3100   14.8340 O.2   127  ASP127     -0.2864
    141  CB        17.6540   -1.7030   12.9220 C.3   127  ASP127      0.1436
    142  CG        17.7680   -2.7990   11.8430 C.2   127  ASP127      0.3671
    143  OD1       17.9480   -3.9810   12.2470 O.co2 127  ASP127     -0.2456
    144  OD2       17.6910   -2.5770   10.5870 O.co2 127  ASP127     -0.2456
@<TRIPOS>BOND
     1   115   113   am
     2   113   114    2
     3   113   112    1
     4    10    11    1
     5    10     9    2
     6    11    12    2
     7   112   111    1
     8     9     3    1
     9     4     3    2
    10     3     2    1
    11     1     2    1
    12     2     5    1
    13   111   108    1
    14    16    15    2
    15    13    14    1
    16   106   104   ar
    17   105   104   ar
    18   108   107    1
    19   108   109    1
    20   104   103    1
    21     5     7    1
    22     5     6    1
    23    15    14    1
    24    14    17    1
    25    97    96    2
    26    17    19    1
    27    17    18    1
    28   109   110    2
    29   109   116   am
    30     6     8    1
    31    96    98   am
    32    96    95    1
    33   103   100    1
    34   102   101    2
    35    95    94    1
    36   116   117    1
    37   101   100    1
    38   144   142   ar
    39   122   121    2
    40   100    99    1
    41    99    92   am
    42   117   120    1
    43   117   118    1
    44   121   120    1
    45   121   123   am
    46    83    82    2
    47    30    31    1
    48    30    29    1
    49    94    91    1
    50    27    26    1
    51    27    28    2
    52    32    33    1
    53    32    31    1
    54    91    92    1
    55    91    90    1
    56    26    29    1
    57    26    25    1
    58    92    93    2
    59   142   143   ar
    60   142   141    1
    61    82    90   am
    62    82    81    1
    63   118   119    2
    64    69    71   ar
    65    69    67   ar
    66    71    70   ar
    67   141   138    1
    68   131   129    1
    69    81    84    1
    70    81    80    1
    71    75    74    2
    72    67    66   ar
    73    70    68   ar
    74    84    85    1
    75    87    85   ar
    76    87    89   ar
    77    24    21    1
    78    21    22    1
    79    21    20    1
    80    22    23    2
    81   138   137    1
    82   138   139    1
    83   135   134    2
    84   129   130    1
    85   129   128    1
    86    85    86   ar
    87   124   125    1
    88    80    74   am
    89   140   139    2
    90    74    73    1
    91   125   128    1
    92   125   126    1
    93   137   134   am
    94   134   133    1
    95    66    68   ar
    96    66    65    1
    97    89    88   ar
    98   136   133    1
    99   126   127    2
   100    86    88   ar
   101   133   132    1
   102    49    47   ar
   103    49    51   ar
   104    47    46   ar
   105    73    72    1
   106    73    76    1
   107    72    63   am
   108    65    62    1
   109    76    77    1
   110    51    50   ar
   111    62    63    1
   112    62    61    1
   113    63    64    2
   114    46    45    1
   115    46    48   ar
   116    45    42    1
   117    55    54    2
   118    41    42    1
   119    50    48   ar
   120    77    79    1
   121    77    78    1
   122    40    38    1
   123    61    54   am
   124    44    43    2
   125    42    43    1
   126    54    53    1
   127    39    38    1
   128    43    52   am
   129    38    35    1
   130    52    53    1
   131    53    56    1
   132    35    34    1
   133    35    36    1
   134    56    57    1
   135    57    58    1
   136    36    37    2
   137    60    58   ar
   138    58    59   ar
