@<TRIPOS>MOLECULE
tmp/1oirA00.pdb
 166 160 0 0 0
SMALL
GASTEIGER

@<TRIPOS>ATOM
      1  N         -0.8050   21.3580   -0.6650 N.3     9  LYS9       -0.1231
      2  CA        -1.2340   21.2330    0.7230 C.3     9  LYS9        0.1693
      3  C         -0.0050   21.5470    1.5830 C.2     9  LYS9        0.2592
      4  O          1.0420   20.9280    1.3930 O.2     9  LYS9       -0.2718
      5  CB        -1.7640   19.8180    1.0020 C.3     9  LYS9        0.0285
      6  CG        -2.1560   19.5660    2.4630 C.3     9  LYS9        0.0035
      7  CD        -2.7880   18.1840    2.6650 C.3     9  LYS9        0.0206
      8  CE        -2.8630   17.7690    4.1420 C.3     9  LYS9        0.1093
      9  NZ        -3.6840   16.5330    4.2960 N.3     9  LYS9       -0.1314
     10  N         -0.1060   22.5240    2.4830 N.am   10  ILE10      -0.1966
     11  CA         1.0100   22.8200    3.3950 C.3    10  ILE10       0.1730
     12  C          0.8320   22.2380    4.7950 C.2    10  ILE10       0.2656
     13  O          1.8140   22.0530    5.5200 O.2    10  ILE10      -0.2711
     14  CB         1.4000   24.3330    3.4120 C.3    10  ILE10       0.0290
     15  CG1        0.2220   25.2690    3.7340 C.3    10  ILE10       0.0022
     16  CG2        2.0450   24.6820    2.0630 C.3    10  ILE10       0.0023
     17  CD1        0.6190   26.7570    3.7360 C.3    10  ILE10       0.0001
     18  N         -0.4030   21.9160    5.1630 N.am   11  GLY11      -0.1716
     19  CA        -0.6400   21.1360    6.3640 C.2    11  GLY11       0.1480
     20  C         -2.0670   21.1150    6.8650 C.2    11  GLY11       0.2820
     21  O         -3.0140   21.4220    6.1340 O.2    11  GLY11      -0.2669
     22  N         -2.1840   20.7450    8.1380 N.am   12  GLU12      -0.1929
     23  CA        -3.4400   20.4870    8.8260 C.3    12  GLU12       0.1736
     24  C         -3.4360   21.2250   10.1650 C.2    12  GLU12       0.2617
     25  O         -2.5890   20.9880   11.0460 O.2    12  GLU12      -0.2715
     26  CB        -3.6640   18.9780    9.0260 C.3    12  GLU12       0.0429
     27  CG        -3.3720   18.1360    7.7860 C.3    12  GLU12       0.1163
     28  CD        -3.4570   16.6360    8.0280 C.2    12  GLU12       0.3649
     29  OE1       -2.9630   16.1680    9.0820 O.co2  12  GLU12      -0.2457
     30  OE2       -3.9950   15.9140    7.1490 O.co2  12  GLU12      -0.2457
     31  N         -4.3750   22.1520   10.2930 N.am   13  GLY13      -0.1955
     32  CA        -4.5170   22.9520   11.4920 C.3    13  GLY13       0.1869
     33  C         -5.4310   22.2270   12.4560 C.2    13  GLY13       0.2309
     34  O         -5.8210   21.0790   12.2350 O.2    13  GLY13      -0.2863
     35  N         -4.8950   23.4510    5.3560 N.3    18  VAL18      -0.1245
     36  CA        -4.2450   24.6620    4.8710 C.3    18  VAL18       0.1561
     37  C         -3.5030   24.4020    3.5540 C.2    18  VAL18       0.2260
     38  O         -2.7220   23.4640    3.4290 O.2    18  VAL18      -0.2867
     39  CB        -3.3110   25.2770    5.9240 C.3    18  VAL18       0.0252
     40  CG1       -2.7510   26.5920    5.3980 C.3    18  VAL18       0.0019
     41  CG2       -4.0620   25.5000    7.2400 C.3    18  VAL18       0.0019
     42  N         -1.6270   31.7500    2.1050 N.3    31  ALA31      -0.1245
     43  CA        -1.9480   30.5050    2.7740 C.3    31  ALA31       0.1562
     44  C         -3.4620   30.5140    2.9370 C.2    31  ALA31       0.2260
     45  O         -4.0280   31.4560    3.4720 O.2    31  ALA31      -0.2867
     46  CB        -1.2640   30.4180    4.1280 C.3    31  ALA31       0.0290
     47  N          0.5150   36.9750   12.0860 N.3    54  VAL54      -0.1245
     48  CA         0.3160   36.5380   10.7110 C.3    54  VAL54       0.1561
     49  C         -0.8640   37.3310   10.1520 C.2    54  VAL54       0.2260
     50  O         -1.9120   37.3530   10.7690 O.2    54  VAL54      -0.2867
     51  CB         0.0490   35.0280   10.6600 C.3    54  VAL54       0.0252
     52  CG1       -0.2790   34.5570    9.2640 C.3    54  VAL54       0.0019
     53  CG2        1.2870   34.2820   11.1280 C.3    54  VAL54       0.0019
     54  N         -4.6340   33.9480    4.6640 N.3    70  PHE70      -0.1227
     55  CA        -3.5100   34.4630    5.4390 C.3    70  PHE70       0.1736
     56  C         -2.3770   34.8530    4.5100 C.2    70  PHE70       0.2595
     57  O         -2.2610   34.3240    3.4130 O.2    70  PHE70      -0.2718
     58  CB        -2.9830   33.4180    6.4210 C.3    70  PHE70       0.0547
     59  CG        -3.9570   33.0120    7.4830 C.ar   70  PHE70      -0.0202
     60  CD1       -4.6360   31.8020    7.3910 C.ar   70  PHE70      -0.0042
     61  CD2       -4.1470   33.8040    8.6140 C.ar   70  PHE70      -0.0042
     62  CE1       -5.5210   31.4110    8.3860 C.ar   70  PHE70      -0.0003
     63  CE2       -5.0270   33.4130    9.6070 C.ar   70  PHE70      -0.0003
     64  CZ        -5.7120   32.2110    9.4910 C.ar   70  PHE70      -0.0000
     65  N         -1.5330   35.7790    4.9460 N.am   71  GLU71      -0.1965
     66  CA        -0.2420   35.9760    4.2930 C.3    71  GLU71       0.1733
     67  C          0.5420   34.6570    4.3480 C.2    71  GLU71       0.2616
     68  O          0.3830   33.8790    5.2820 O.2    71  GLU71      -0.2715
     69  CB         0.5810   37.0850    4.9680 C.3    71  GLU71       0.0429
     70  CG         1.1280   36.7000    6.3310 C.3    71  GLU71       0.1163
     71  CD         2.0850   37.7260    6.9070 C.2    71  GLU71       0.3649
     72  OE1        3.1440   37.9660    6.2970 O.co2  71  GLU71      -0.2457
     73  OE2        1.7910   38.2730    7.9820 O.co2  71  GLU71      -0.2457
     74  N          1.3950   34.4230    3.3620 N.am   72  PHE72      -0.1960
     75  CA         2.2050   33.2020    3.3030 C.3    72  PHE72       0.1771
     76  C          3.5710   33.3380    3.9550 C.2    72  PHE72       0.2619
     77  O          4.3670   34.1880    3.5690 O.2    72  PHE72      -0.2715
     78  CB         2.4300   32.7870    1.8520 C.3    72  PHE72       0.0574
     79  CG         3.1840   31.5030    1.7000 C.ar   72  PHE72      -0.0200
     80  CD1        2.5720   30.3070    2.0010 C.ar   72  PHE72      -0.0042
     81  CD2        4.5060   31.4890    1.2590 C.ar   72  PHE72      -0.0042
     82  CE1        3.2480   29.1100    1.8630 C.ar   72  PHE72      -0.0003
     83  CE2        5.1950   30.2910    1.1230 C.ar   72  PHE72      -0.0003
     84  CZ         4.5550   29.0960    1.4310 C.ar   72  PHE72      -0.0000
     85  N          3.8590   32.4450    4.8980 N.am   73  LEU73      -0.1963
     86  CA         5.1710   32.3600    5.5140 C.3    73  LEU73       0.1728
     87  C          5.9020   31.1090    5.0760 C.2    73  LEU73       0.2616
     88  O          5.2880   30.1480    4.6250 O.2    73  LEU73      -0.2715
     89  CB         5.0300   32.4150    7.0300 C.3    73  LEU73       0.0311
     90  CG         4.7900   33.8900    7.3690 C.3    73  LEU73       0.0022
     91  CD1        3.5930   34.1500    8.2560 C.3    73  LEU73       0.0001
     92  CD2        6.0790   34.4250    7.9510 C.3    73  LEU73       0.0001
     93  N          7.2230   31.1500    5.2190 N.am   74  HIS74      -0.1959
     94  CA         8.1260   30.1380    4.6770 C.3    74  HIS74       0.1787
     95  C          7.9130   28.7450    5.2900 C.2    74  HIS74       0.2620
     96  O          7.8200   27.7360    4.5790 O.2    74  HIS74      -0.2715
     97  CB         9.5710   30.5880    4.9000 C.3    74  HIS74       0.0785
     98  CG        10.5760   29.7330    4.2010 C.ar   74  HIS74       0.0821
     99  ND1       11.2450   28.7000    4.8240 N.ar   74  HIS74      -0.2267
    100  CD2       11.0080   29.7420    2.9210 C.ar   74  HIS74       0.1154
    101  CE1       12.0470   28.1150    3.9540 C.ar   74  HIS74       0.1986
    102  NE2       11.9290   28.7330    2.7950 N.ar   74  HIS74      -0.2212
    103  N          7.8550   28.7060    6.6160 N.am   75  GLN75      -0.1963
    104  CA         7.6580   27.4590    7.3660 C.3    75  GLN75       0.1733
    105  C          7.2970   27.7230    8.8280 C.2    75  GLN75       0.2616
    106  O          7.3400   28.8620    9.2870 O.2    75  GLN75      -0.2715
    107  CB         8.9220   26.5880    7.3120 C.3    75  GLN75       0.0408
    108  CG        10.0280   27.0390    8.2500 C.3    75  GLN75       0.0908
    109  CD        11.2990   26.2210    8.0790 C.2    75  GLN75       0.2608
    110  OE1       11.9030   26.2190    7.0040 O.2    75  GLN75      -0.2717
    111  NE2       11.7030   25.5270    9.1300 N.am   75  GLN75      -0.0878
    112  N          6.9670   26.6580    9.5590 N.am   76  ASP76      -0.1971
    113  CA         6.7450   26.7480   11.0170 C.3    76  ASP76       0.1709
    114  C          7.9980   26.4920   11.8690 C.2    76  ASP76       0.2293
    115  O          8.9710   25.8560   11.4410 O.2    76  ASP76      -0.2864
    116  CB         5.5550   25.8800   11.4990 C.3    76  ASP76       0.1436
    117  CG         5.8630   24.3840   11.5520 C.2    76  ASP76       0.3671
    118  OD1        6.8640   23.9830   12.1600 O.co2  76  ASP76      -0.2456
    119  OD2        5.1300   23.5140   11.0470 O.co2  76  ASP76      -0.2456
    120  N          9.2340   22.6760   12.6650 N.3    79  LYS79      -0.1245
    121  CA        10.1170   22.0650   11.6840 C.3    79  LYS79       0.1561
    122  C         11.5610   22.5600   11.8510 C.2    79  LYS79       0.2260
    123  O         12.4980   21.7720   11.7590 O.2    79  LYS79      -0.2867
    124  CB         9.6030   22.3140   10.2590 C.3    79  LYS79       0.0271
    125  CG        10.4910   21.6600    9.2060 C.3    79  LYS79       0.0035
    126  CD         9.9480   21.7200    7.7930 C.3    79  LYS79       0.0206
    127  CE        10.9470   21.1660    6.8050 C.3    79  LYS79       0.1093
    128  NZ        10.4790   21.4820    5.4350 N.3    79  LYS79      -0.1314
    129  N          4.0090   24.7400   16.3170 N.3   121  GLN121     -0.1231
    130  CA         3.2970   24.6170   15.0180 C.3   121  GLN121      0.1698
    131  C          2.5730   25.8780   14.5120 C.2   121  GLN121      0.2592
    132  O          2.3980   26.0500   13.3070 O.2   121  GLN121     -0.2718
    133  CB         2.2650   23.4840   15.0810 C.3   121  GLN121      0.0381
    134  CG         2.8660   22.0820   15.2270 C.3   121  GLN121      0.0905
    135  CD         3.2820   21.6980   16.6550 C.2   121  GLN121      0.2608
    136  OE1        3.9650   20.6940   16.8350 O.2   121  GLN121     -0.2717
    137  NE2        2.8770   22.4790   17.6550 N.am  121  GLN121     -0.0878
    138  N          2.1200   26.7390   15.4130 N.am  122  ASN122     -0.1974
    139  CA         1.4220   27.9640   14.9910 C.3   122  ASN122      0.1688
    140  C          2.2780   29.2200   15.1620 C.2   122  ASN122      0.2292
    141  O          1.7530   30.3280   15.1420 O.2   122  ASN122     -0.2864
    142  CB         0.0130   28.0960   15.6030 C.3   122  ASN122      0.1181
    143  CG        -0.0030   28.0430   17.1210 C.2   122  ASN122      0.2629
    144  OD1       -0.9760   27.5490   17.7270 O.2   122  ASN122     -0.2716
    145  ND2        1.0610   28.5290   17.7470 N.am  122  ASN122     -0.0877
    146  N          5.2580   30.9290   13.0280 N.3   124  LEU124     -0.1245
    147  CA         5.7180   30.8520   11.6540 C.3   124  LEU124      0.1561
    148  C          6.8980   31.8090   11.4260 C.2   124  LEU124      0.2260
    149  O          6.9140   32.9260   11.9290 O.2   124  LEU124     -0.2867
    150  CB         4.5590   31.1750   10.7010 C.3   124  LEU124      0.0270
    151  CG         3.2930   30.2970   10.8170 C.3   124  LEU124      0.0019
    152  CD1        2.2750   30.7080    9.7970 C.3   124  LEU124      0.0001
    153  CD2        3.5880   28.8180   10.6220 C.3   124  LEU124      0.0001
    154  N          0.4300   32.6920   14.5290 N.3   134  ALA134     -0.1231
    155  CA        -0.7630   32.3650   13.7550 C.3   134  ALA134      0.1694
    156  C         -1.8900   31.8580   14.6360 C.2   134  ALA134      0.2592
    157  O         -1.6550   31.4110   15.7480 O.2   134  ALA134     -0.2718
    158  CB        -0.4310   31.3470   12.7220 C.3   134  ALA134      0.0304
    159  N         -3.1070   31.9550   14.1090 N.am  135  ASP135     -0.1974
    160  CA        -4.3400   31.4480   14.7310 C.3   135  ASP135      0.1709
    161  C         -4.7780   32.2450   15.9530 C.2   135  ASP135      0.2293
    162  O         -5.5470   31.7480   16.7720 O.2   135  ASP135     -0.2864
    163  CB        -4.2410   29.9640   15.0870 C.3   135  ASP135      0.1436
    164  CG        -4.3340   29.0660   13.8790 C.2   135  ASP135      0.3671
    165  OD1       -4.6530   29.5570   12.7680 O.co2 135  ASP135     -0.2456
    166  OD2       -4.1450   27.8380   13.9740 O.co2 135  ASP135     -0.2456
@<TRIPOS>BOND
     1     1     2    1
     2     2     5    1
     3     2     3    1
     4     5     6    1
     5    83    81   ar
     6    83    84   ar
     7    81    79   ar
     8     4     3    2
     9    84    82   ar
    10     3    10   am
    11    79    78    1
    12    79    80   ar
    13    78    75    1
    14    82    80   ar
    15    16    14    1
    16    42    43    1
    17     6     7    1
    18    10    11    1
    19     7     8    1
    20    43    44    1
    21    43    46    1
    22   102   100   ar
    23   102   101   ar
    24   100    98   ar
    25    44    45    2
    26    75    74    1
    27    75    76    1
    28    74    67   am
    29    11    14    1
    30    11    12    1
    31    14    15    1
    32    57    56    2
    33    38    37    2
    34    37    36    1
    35    77    76    2
    36    15    17    1
    37   101    99   ar
    38    76    85   am
    39     8     9    1
    40    98    99   ar
    41    98    97    1
    42    66    67    1
    43    66    65    1
    44    66    69    1
    45    67    68    2
    46    56    65   am
    47    56    55    1
    48    96    95    2
    49    88    87    2
    50    54    55    1
    51    94    97    1
    52    94    93    1
    53    94    95    1
    54    12    18    1
    55    12    13    2
    56    36    35    1
    57    36    39    1
    58    85    86    1
    59    69    70    1
    60    87    93   am
    61    87    86    1
    62    18    19    2
    63    95   103   am
    64    40    39    1
    65   128   127    1
    66    55    58    1
    67    86    89    1
    68    39    41    1
    69    21    20    2
    70    72    71   ar
    71    70    71    1
    72    19    20    1
    73    58    59    1
    74   103   104    1
    75   127   126    1
    76    20    22   am
    77    71    73   ar
    78   110   109    2
    79    89    90    1
    80    30    28   ar
    81   107   104    1
    82   107   108    1
    83   104   105    1
    84    90    92    1
    85    90    91    1
    86    60    59   ar
    87    60    62   ar
    88    59    61   ar
    89    27    28    1
    90    27    26    1
    91   126   125    1
    92    28    29   ar
    93   109   108    1
    94   109   111   am
    95    22    23    1
    96    62    64   ar
    97    61    63   ar
    98    23    26    1
    99    23    24    1
   100   105   106    2
   101   105   112   am
   102   125   124    1
   103    52    51    1
   104    64    63   ar
   105   112   113    1
   106   152   151    1
   107    49    48    1
   108    49    50    2
   109    24    31   am
   110    24    25    2
   111   124   121    1
   112    31    32    1
   113   153   151    1
   114    51    48    1
   115    51    53    1
   116   150   151    1
   117   150   147    1
   118    48    47    1
   119   113   116    1
   120   113   114    1
   121   119   117   ar
   122   148   147    1
   123   148   149    2
   124   115   114    2
   125    32    33    1
   126   116   117    1
   127   117   118   ar
   128   147   146    1
   129   121   122    1
   130   121   120    1
   131   123   122    2
   132    34    33    2
   133   158   155    1
   134   165   164   ar
   135   132   131    2
   136   155   154    1
   137   155   156    1
   138   164   166   ar
   139   164   163    1
   140   159   156   am
   141   159   160    1
   142   131   130    1
   143   131   138   am
   144   156   157    2
   145   160   163    1
   146   160   161    1
   147   139   140    1
   148   139   138    1
   149   139   142    1
   150   130   133    1
   151   130   129    1
   152   133   134    1
   153   141   140    2
   154   134   135    1
   155   142   143    1
   156   161   162    2
   157   135   136    2
   158   135   137   am
   159   143   144    2
   160   143   145   am
