@<TRIPOS>MOLECULE
tmp/1oitA00.pdb
 166 159 0 0 0
SMALL
GASTEIGER

@<TRIPOS>ATOM
      1  N         13.9100  -14.2650    6.0280 N.3     8  ILE8       -0.1231
      2  CA        12.8150  -13.4000    6.4780 C.3     8  ILE8        0.1692
      3  C         12.8880  -12.0160    5.8480 C.2     8  ILE8        0.2593
      4  O         11.8950  -11.2800    5.8040 O.2     8  ILE8       -0.2718
      5  CB        12.7790  -13.3550    8.0450 C.3     8  ILE8        0.0266
      6  CG1       11.5120  -14.0440    8.5360 C.3     8  ILE8        0.0019
      7  CG2       12.8950  -11.9330    8.6190 C.3     8  ILE8        0.0020
      8  CD1       11.4620  -15.4910    8.1230 C.3     8  ILE8        0.0001
      9  N         14.0610  -11.6720    5.3370 N.am    9  GLY9       -0.1942
     10  CA        14.2470  -10.3920    4.6950 C.3     9  GLY9        0.2014
     11  C         15.6960  -10.0310    4.4970 C.2     9  GLY9        0.2639
     12  O         16.5980  -10.8420    4.7020 O.2     9  GLY9       -0.2714
     13  N         15.9040   -8.7970    4.0620 N.am   10  GLU10      -0.1963
     14  CA        17.2360   -8.2310    3.9170 C.3    10  GLU10       0.1733
     15  C         17.2140   -6.8100    4.4790 C.2    10  GLU10       0.2616
     16  O         16.2550   -6.0630    4.2630 O.2    10  GLU10      -0.2715
     17  CB        17.6620   -8.2510    2.4470 C.3    10  GLU10       0.0429
     18  CG        17.6500   -9.6470    1.8330 C.3    10  GLU10       0.1163
     19  CD        17.9130   -9.6520    0.3410 C.2    10  GLU10       0.3649
     20  OE1       17.5590   -8.6660   -0.3420 O.co2  10  GLU10      -0.2457
     21  OE2       18.4670  -10.6550   -0.1530 O.co2  10  GLU10      -0.2457
     22  N         18.2600   -6.4520    5.2190 N.am   11  GLY11      -0.1955
     23  CA        18.3460   -5.1590    5.8810 C.3    11  GLY11       0.1869
     24  C         19.4560   -4.2900    5.3150 C.2    11  GLY11       0.2309
     25  O         20.1260   -4.6710    4.3540 O.2    11  GLY11      -0.2863
     26  N         18.5650  -11.0780    7.1380 N.3    16  VAL16      -0.1245
     27  CA        17.9780  -11.6230    8.3620 C.3    16  VAL16       0.1561
     28  C         17.2360  -12.9230    8.0670 C.2    16  VAL16       0.2260
     29  O         16.5430  -13.0300    7.0610 O.2    16  VAL16      -0.2867
     30  CB        16.9980  -10.6180    8.9970 C.3    16  VAL16       0.0252
     31  CG1       16.4450  -11.1460   10.3140 C.3    16  VAL16       0.0019
     32  CG2       17.6840   -9.2820    9.2180 C.3    16  VAL16       0.0019
     33  N         15.4680  -14.5680   15.3600 N.3    28  ALA28      -0.1245
     34  CA        15.8340  -13.8470   14.1510 C.3    28  ALA28       0.1562
     35  C         17.3540  -13.7060   14.1220 C.2    28  ALA28       0.2260
     36  O         17.9480  -13.1600   15.0440 O.2    28  ALA28      -0.2867
     37  CB        15.1800  -12.4970   14.1410 C.3    28  ALA28       0.0290
     38  N         20.5800  -12.2070   12.2350 N.3    30  LYS30      -0.1245
     39  CA        21.0590  -11.1830   11.3110 C.3    30  LYS30       0.1561
     40  C         22.5620  -11.3120   11.0940 C.2    30  LYS30       0.2260
     41  O         23.3390  -11.1850   12.0320 O.2    30  LYS30      -0.2867
     42  CB        20.7480   -9.7900   11.8590 C.3    30  LYS30       0.0271
     43  CG        21.0140   -8.6570   10.8650 C.3    30  LYS30       0.0035
     44  CD        20.8850   -7.2790   11.5020 C.3    30  LYS30       0.0206
     45  CE        19.4600   -6.9670   11.9330 C.3    30  LYS30       0.1093
     46  NZ        18.8760   -5.8790   11.1200 N.3    30  LYS30      -0.1314
     47  N         12.8810   -4.8050   20.4800 N.3    50  VAL50      -0.1245
     48  CA        13.1740   -6.1830   20.1120 C.3    50  VAL50       0.1561
     49  C         14.4790   -6.6160   20.7890 C.2    50  VAL50       0.2260
     50  O         15.5440   -6.0730   20.4970 O.2    50  VAL50      -0.2867
     51  CB        13.2800   -6.3410   18.5880 C.3    50  VAL50       0.0252
     52  CG1       13.7680   -7.7340   18.2080 C.3    50  VAL50       0.0019
     53  CG2       11.9310   -6.0670   17.9410 C.3    50  VAL50       0.0019
     54  N         18.3480  -12.0210   17.6250 N.3    66  PHE66      -0.1227
     55  CA        17.2530  -11.2760   18.2390 C.3    66  PHE66       0.1736
     56  C         16.0980  -12.2050   18.5880 C.2    66  PHE66       0.2595
     57  O         15.9720  -13.2920   18.0310 O.2    66  PHE66      -0.2718
     58  CB        16.7240  -10.2070   17.2740 C.3    66  PHE66       0.0547
     59  CG        17.7300   -9.1540   16.9070 C.ar   66  PHE66      -0.0202
     60  CD1       17.9430   -8.0570   17.7350 C.ar   66  PHE66      -0.0042
     61  CD2       18.4390   -9.2420   15.7200 C.ar   66  PHE66      -0.0042
     62  CE1       18.8610   -7.0730   17.3850 C.ar   66  PHE66      -0.0003
     63  CE2       19.3580   -8.2620   15.3640 C.ar   66  PHE66      -0.0003
     64  CZ        19.5710   -7.1820   16.1980 C.ar   66  PHE66      -0.0000
     65  N         15.2440  -11.7600   19.5050 N.am   67  GLU67      -0.1965
     66  CA        13.9500  -12.3970   19.7120 C.3    67  GLU67       0.1733
     67  C         13.1810  -12.3210   18.3920 C.2    67  GLU67       0.2616
     68  O         13.2930  -11.3320   17.6530 O.2    67  GLU67      -0.2715
     69  CB        13.1670  -11.7160   20.8540 C.3    67  GLU67       0.0429
     70  CG        12.5310  -10.3760   20.5060 C.3    67  GLU67       0.1163
     71  CD        11.4970   -9.9080   21.5200 C.2    67  GLU67       0.3649
     72  OE1       10.4240  -10.5410   21.6320 O.co2  67  GLU67      -0.2457
     73  OE2       11.7440   -8.8940   22.1970 O.co2  67  GLU67      -0.2457
     74  N         12.4180  -13.3650   18.0970 N.am   68  PHE68      -0.1960
     75  CA        11.6550  -13.4420   16.8650 C.3    68  PHE68       0.1771
     76  C         10.2200  -12.9550   17.0750 C.2    68  PHE68       0.2619
     77  O          9.5520  -13.3630   18.0170 O.2    68  PHE68      -0.2715
     78  CB        11.6550  -14.8740   16.3320 C.3    68  PHE68       0.0574
     79  CG        10.8510  -15.0540   15.0840 C.ar   68  PHE68      -0.0200
     80  CD1       11.3930  -14.7460   13.8410 C.ar   68  PHE68      -0.0042
     81  CD2        9.5480  -15.5300   15.1470 C.ar   68  PHE68      -0.0042
     82  CE1       10.6460  -14.9100   12.6790 C.ar   68  PHE68      -0.0003
     83  CE2        8.7910  -15.6870   13.9930 C.ar   68  PHE68      -0.0003
     84  CZ         9.3410  -15.3820   12.7560 C.ar   68  PHE68      -0.0000
     85  N          9.7740  -12.0510   16.2030 N.am   69  LEU69      -0.1963
     86  CA         8.3650  -11.6820   16.1050 C.3    69  LEU69       0.1728
     87  C          7.8400  -12.1530   14.7540 C.2    69  LEU69       0.2616
     88  O          8.6180  -12.4170   13.8430 O.2    69  LEU69      -0.2715
     89  CB         8.1780  -10.1730   16.2930 C.3    69  LEU69       0.0311
     90  CG         8.2660   -9.7410   17.7690 C.3    69  LEU69       0.0022
     91  CD1        9.6760   -9.2890   18.1100 C.3    69  LEU69       0.0001
     92  CD2        7.2450   -8.6760   18.1400 C.3    69  LEU69       0.0001
     93  N          6.5200  -12.2730   14.6260 N.am   70  HIS70      -0.1959
     94  CA         5.9260  -12.9610   13.4760 C.3    70  HIS70       0.1787
     95  C          5.5440  -12.0530   12.3030 C.2    70  HIS70       0.2620
     96  O          5.3560  -12.5380   11.1910 O.2    70  HIS70      -0.2715
     97  CB         4.6880  -13.7400   13.9100 C.3    70  HIS70       0.0785
     98  CG         4.9880  -15.0280   14.6110 C.ar   70  HIS70       0.0821
     99  ND1        4.7250  -16.2570   14.0480 N.ar   70  HIS70      -0.2267
    100  CD2        5.5020  -15.2770   15.8380 C.ar   70  HIS70       0.1154
    101  CE1        5.0730  -17.2090   14.8960 C.ar   70  HIS70       0.1986
    102  NE2        5.5490  -16.6410   15.9880 N.ar   70  HIS70      -0.2212
    103  N          5.4130  -10.7500   12.5370 N.am   71  GLN71      -0.1963
    104  CA         5.0760   -9.8310   11.4480 C.3    71  GLN71       0.1733
    105  C          5.6480   -8.4270   11.6550 C.2    71  GLN71       0.2616
    106  O          5.8370   -7.9840   12.7810 O.2    71  GLN71      -0.2715
    107  CB         3.5560   -9.7650   11.2490 C.3    71  GLN71       0.0408
    108  CG         3.1400   -9.2810    9.8640 C.3    71  GLN71       0.0908
    109  CD         1.6940   -9.5990    9.5230 C.2    71  GLN71       0.2608
    110  OE1        0.8590   -8.6980    9.4320 O.2    71  GLN71      -0.2717
    111  NE2        1.3980  -10.8770    9.3210 N.am   71  GLN71      -0.0878
    112  N          5.9330   -7.7430   10.5510 N.am   72  ASP72      -0.1971
    113  CA         6.3200   -6.3350   10.5990 C.3    72  ASP72       0.1709
    114  C          5.1380   -5.4420   10.2150 C.2    72  ASP72       0.2293
    115  O          4.1360   -5.9150    9.6760 O.2    72  ASP72      -0.2864
    116  CB         7.5610   -6.0420    9.7370 C.3    72  ASP72       0.1436
    117  CG         7.3290   -6.2430    8.2420 C.2    72  ASP72       0.3671
    118  OD1        6.3110   -5.7750    7.7080 O.co2  72  ASP72      -0.2456
    119  OD2        8.1350   -6.8430    7.5130 O.co2  72  ASP72      -0.2456
    120  N          4.0000   -5.1660    6.3820 N.3    75  LYS75      -0.1245
    121  CA         3.1370   -6.2650    5.9520 C.3    75  LYS75       0.1561
    122  C          1.7170   -6.1260    6.5050 C.2    75  LYS75       0.2260
    123  O          0.7510   -6.4520    5.8150 O.2    75  LYS75      -0.2867
    124  CB         3.7260   -7.6070    6.3950 C.3    75  LYS75       0.0271
    125  CG         2.8690   -8.8090    6.0320 C.3    75  LYS75       0.0035
    126  CD         3.7120  -10.0720    5.9050 C.3    75  LYS75       0.0206
    127  CE         2.8840  -11.2720    5.4900 C.3    75  LYS75       0.1093
    128  NZ         3.4560  -12.5300    6.0420 N.3    75  LYS75      -0.1314
    129  N          9.1370   -1.3250    8.3080 N.3   117  GLN117     -0.1231
    130  CA         9.7980   -2.6170    8.1640 C.3   117  GLN117      0.1698
    131  C         10.5220   -3.0780    9.4340 C.2   117  GLN117      0.2592
    132  O         10.6610   -4.2800    9.6630 O.2   117  GLN117     -0.2718
    133  CB        10.7930   -2.5570    6.9960 C.3   117  GLN117      0.0381
    134  CG        10.1490   -2.4990    5.6010 C.3   117  GLN117      0.0905
    135  CD         9.5890   -1.1230    5.2010 C.2   117  GLN117      0.2608
    136  OE1        9.9040   -0.0920    5.8050 O.2   117  GLN117     -0.2717
    137  NE2        8.7560   -1.1180    4.1660 N.am  117  GLN117     -0.0878
    138  N         11.0030   -2.1370   10.2460 N.am  118  ASN118     -0.1974
    139  CA        11.6410   -2.4920   11.5220 C.3   118  ASN118      0.1688
    140  C         10.7510   -2.2440   12.7480 C.2   118  ASN118      0.2292
    141  O         11.2400   -2.1190   13.8670 O.2   118  ASN118     -0.2864
    142  CB        13.0380   -1.8530   11.6790 C.3   118  ASN118      0.1181
    143  CG        13.0560   -0.3720   11.4190 C.2   118  ASN118      0.2629
    144  OD1       13.9290    0.1250   10.6960 O.2   118  ASN118     -0.2716
    145  ND2       12.1260    0.3530   12.0230 N.am  118  ASN118     -0.0877
    146  N          7.9170   -4.2940   14.6190 N.3   120  LEU120     -0.1245
    147  CA         7.4590   -5.6730   14.6420 C.3   120  LEU120      0.1561
    148  C          6.3160   -5.8770   15.6260 C.2   120  LEU120      0.2260
    149  O          6.3010   -5.2950   16.7030 O.2   120  LEU120     -0.2867
    150  CB         8.6230   -6.5970   14.9950 C.3   120  LEU120      0.0270
    151  CG         9.8430   -6.5000   14.0740 C.3   120  LEU120      0.0019
    152  CD1       10.9030   -7.4790   14.5220 C.3   120  LEU120      0.0001
    153  CD2        9.4780   -6.7510   12.6180 C.3   120  LEU120      0.0001
    154  N         12.8450   -2.6660   16.1950 N.3   130  ALA130     -0.1231
    155  CA        13.9970   -3.4960   15.8430 C.3   130  ALA130      0.1694
    156  C         15.1130   -2.6230   15.2840 C.2   130  ALA130      0.2592
    157  O         14.8480   -1.5610   14.7220 O.2   130  ALA130     -0.2718
    158  CB        13.5970   -4.5390   14.8230 C.3   130  ALA130      0.0304
    159  N         16.3530   -3.0830   15.4420 N.am  131  ASP131     -0.1974
    160  CA        17.5560   -2.3970   14.9310 C.3   131  ASP131      0.1709
    161  C         17.9430   -1.1060   15.6550 C.2   131  ASP131      0.2293
    162  O         18.6370   -0.2520   15.0850 O.2   131  ASP131     -0.2864
    163  CB        17.4380   -2.1310   13.4180 C.3   131  ASP131      0.1436
    164  CG        17.5950   -3.3890   12.5940 C.2   131  ASP131      0.3671
    165  OD1       17.7410   -4.4790   13.1840 O.co2 131  ASP131     -0.2456
    166  OD2       17.6000   -3.3850   11.3430 O.co2 131  ASP131     -0.2456
@<TRIPOS>BOND
     1    20    19   ar
     2    21    19   ar
     3    19    18    1
     4    18    17    1
     5    17    14    1
     6    14    13    1
     7    14    15    1
     8    13    11   am
     9   137   135   am
    10    16    15    2
    11    25    24    2
    12    15    22   am
    13    11    10    1
    14    11    12    2
    15    10     9    1
    16   135   134    1
    17   135   136    2
    18    22    23    1
    19    24    23    1
    20     9     3   am
    21   127   126    1
    22   127   128    1
    23   134   133    1
    24     4     3    2
    25   123   122    2
    26     3     2    1
    27   126   125    1
    28   121   120    1
    29   121   124    1
    30   121   122    1
    31     1     2    1
    32   125   124    1
    33     2     5    1
    34   133   130    1
    35    29    28    2
    36    26    27    1
    37   119   117   ar
    38   118   117   ar
    39     5     6    1
    40     5     7    1
    41    28    27    1
    42     8     6    1
    43   130   129    1
    44   130   131    1
    45   117   116    1
    46    27    30    1
    47    30    32    1
    48    30    31    1
    49   111   109   am
    50   110   109    2
    51   131   132    2
    52   131   138   am
    53   109   108    1
    54   115   114    2
    55   116   113    1
    56   108   107    1
    57   114   113    1
    58   138   139    1
    59   112   113    1
    60   112   105   am
    61   144   143    2
    62    43    44    1
    63    43    42    1
    64    40    39    1
    65    40    41    2
    66    46    45    1
    67    96    95    2
    68   107   104    1
    69    39    42    1
    70    39    38    1
    71   166   164   ar
    72   143   142    1
    73   143   145   am
    74   104   105    1
    75   104   103    1
    76    44    45    1
    77   139   142    1
    78   139   140    1
    79   105   106    2
    80    95   103   am
    81    95    94    1
    82   164   165   ar
    83   164   163    1
    84   153   151    1
    85    82    84   ar
    86    82    80   ar
    87   140   141    2
    88    84    83   ar
    89   163   160    1
    90    94    97    1
    91    94    93    1
    92    80    79   ar
    93    88    87    2
    94    97    98    1
    95    83    81   ar
    96    99    98   ar
    97    99   101   ar
    98   151   152    1
    99   151   150    1
   100    35    34    1
   101    35    36    2
   102    37    34    1
   103    34    33    1
   104    98   100   ar
   105   146   147    1
   106    93    87   am
   107   147   150    1
   108   147   148    1
   109   157   156    2
   110    87    86    1
   111   158   155    1
   112   101   102   ar
   113   160   159    1
   114   160   161    1
   115    79    81   ar
   116    79    78    1
   117   162   161    2
   118   156   159   am
   119   156   155    1
   120    63    61   ar
   121    63    64   ar
   122   148   149    2
   123    61    59   ar
   124   100   102   ar
   125   155   154    1
   126    86    85    1
   127    86    89    1
   128    64    62   ar
   129    85    76   am
   130    89    90    1
   131    78    75    1
   132    75    76    1
   133    75    74    1
   134    59    58    1
   135    59    60   ar
   136    76    77    2
   137    58    55    1
   138    62    60   ar
   139    54    55    1
   140    68    67    2
   141    90    91    1
   142    90    92    1
   143    53    51    1
   144    57    56    2
   145    74    67   am
   146    52    51    1
   147    55    56    1
   148    67    66    1
   149    56    65   am
   150    51    48    1
   151    65    66    1
   152    66    69    1
   153    48    47    1
   154    48    49    1
   155    50    49    2
   156    70    69    1
   157    70    71    1
   158    71    72   ar
   159    71    73   ar
