@<TRIPOS>MOLECULE
tmp/1oiuC00.pdb
 184 175 0 0 0
SMALL
GASTEIGER

@<TRIPOS>ATOM
      1  N         22.5230   87.9030   42.9870 N.3     9  GLU9       -0.1245
      2  CA        23.1540   88.4660   41.7870 C.3     9  GLU9        0.1567
      3  C         24.1600   87.4870   41.1890 C.2     9  GLU9        0.2260
      4  O         24.6870   86.6160   41.8850 O.2     9  GLU9       -0.2867
      5  CB        23.8390   89.8120   42.0990 C.3     9  GLU9        0.0388
      6  CG        25.0650   89.7140   42.9960 C.3     9  GLU9        0.1160
      7  CD        25.3310   90.9700   43.8160 C.2     9  GLU9        0.3649
      8  OE1       24.3610   91.6160   44.2720 O.co2   9  GLU9       -0.2457
      9  OE2       26.5240   91.3000   44.0250 O.co2   9  GLU9       -0.2457
     10  N         27.7990   86.7450   40.0160 N.3    11  ILE11      -0.1231
     11  CA        29.1210   87.2560   40.3390 C.3    11  ILE11       0.1692
     12  C         30.0300   87.2130   39.1080 C.2    11  ILE11       0.2593
     13  O         30.7340   88.1860   38.8230 O.2    11  ILE11      -0.2718
     14  CB        29.7560   86.4750   41.5190 C.3    11  ILE11       0.0266
     15  CG1       28.9710   86.7190   42.8140 C.3    11  ILE11       0.0019
     16  CG2       31.2080   86.8730   41.7050 C.3    11  ILE11       0.0020
     17  CD1       29.2760   85.6970   43.9270 C.3    11  ILE11       0.0001
     18  N         30.0240   86.0870   38.3960 N.am   12  GLY12      -0.1942
     19  CA        30.8620   85.9460   37.2110 C.3    12  GLY12       0.2014
     20  C         30.9570   84.5370   36.6700 C.2    12  GLY12       0.2639
     21  O         30.2660   83.6320   37.1430 O.2    12  GLY12      -0.2714
     22  N         31.8130   84.3640   35.6660 N.am   13  GLU13      -0.1963
     23  CA        32.0290   83.0840   35.0080 C.3    13  GLU13       0.1733
     24  C         33.5150   82.7580   35.0400 C.2    13  GLU13       0.2616
     25  O         34.3380   83.5150   34.5120 O.2    13  GLU13      -0.2715
     26  CB        31.5250   83.1250   33.5570 C.3    13  GLU13       0.0429
     27  CG        30.0100   83.2250   33.4350 C.3    13  GLU13       0.1163
     28  CD        29.5180   83.1930   31.9930 C.2    13  GLU13       0.3649
     29  OE1       30.0640   82.4190   31.1820 O.co2  13  GLU13      -0.2457
     30  OE2       28.5740   83.9400   31.6680 O.co2  13  GLU13      -0.2457
     31  N         33.8520   81.6460   35.6840 N.am   14  GLY14      -0.1955
     32  CA        35.2310   81.2130   35.8260 C.3    14  GLY14       0.1869
     33  C         35.6350   80.2440   34.7330 C.2    14  GLY14       0.2309
     34  O         35.2470   80.4180   33.5780 O.2    14  GLY14      -0.2863
     35  N         28.8920   81.5970   38.5090 N.3    19  VAL19      -0.1245
     36  CA        28.8100   81.7740   39.9570 C.3    19  VAL19       0.1561
     37  C         27.8530   82.9100   40.3260 C.2    19  VAL19       0.2260
     38  O         27.9670   84.0350   39.8080 O.2    19  VAL19      -0.2867
     39  CB        30.2170   81.9500   40.6030 C.3    19  VAL19       0.0252
     40  CG1       30.1190   82.1690   42.1220 C.3    19  VAL19       0.0019
     41  CG2       31.1130   80.7600   40.2970 C.3    19  VAL19       0.0019
     42  N         25.7530   84.9620   43.6630 N.3    21  LYS21      -0.1245
     43  CA        25.5210   85.2140   45.0720 C.3    21  LYS21       0.1561
     44  C         24.0880   84.7860   45.3550 C.2    21  LYS21       0.2260
     45  O         23.1590   85.1280   44.6140 O.2    21  LYS21      -0.2867
     46  CB        25.7170   86.6980   45.4010 C.3    21  LYS21       0.0271
     47  CG        25.6390   87.0360   46.8850 C.3    21  LYS21       0.0035
     48  CD        25.8660   88.5330   47.1220 C.3    21  LYS21       0.0206
     49  CE        25.6620   88.9260   48.5780 C.3    21  LYS21       0.1093
     50  NZ        26.1390   90.3220   48.8440 N.3    21  LYS21      -0.1314
     51  N         28.1050   81.3450   47.6910 N.3    32  ALA32      -0.1245
     52  CA        28.3140   81.4300   46.2510 C.3    32  ALA32       0.1562
     53  C         27.8140   80.1240   45.6360 C.2    32  ALA32       0.2260
     54  O         28.1730   79.0490   46.1020 O.2    32  ALA32      -0.2867
     55  CB        29.7840   81.6540   45.9300 C.3    32  ALA32       0.0290
     56  N         38.9540   77.9090   49.5190 N.3    65  VAL65      -0.1245
     57  CA        37.5080   78.1080   49.5320 C.3    65  VAL65       0.1561
     58  C         36.7490   76.8090   49.8810 C.2    65  VAL65       0.2260
     59  O         37.0500   75.7350   49.3560 O.2    65  VAL65      -0.2867
     60  CB        36.9980   78.7010   48.2020 C.3    65  VAL65       0.0252
     61  CG1       37.1090   77.6810   47.0620 C.3    65  VAL65       0.0019
     62  CG2       35.5660   79.1920   48.3600 C.3    65  VAL65       0.0019
     63  N         29.1790   77.0280   47.7270 N.3    81  PHE81      -0.1227
     64  CA        30.4240   77.4720   48.3370 C.3    81  PHE81       0.1736
     65  C         30.1490   78.5360   49.4010 C.2    81  PHE81       0.2595
     66  O         29.1560   79.2550   49.3190 O.2    81  PHE81      -0.2718
     67  CB        31.3230   78.1470   47.2940 C.3    81  PHE81       0.0547
     68  CG        31.9660   77.2100   46.3120 C.ar   81  PHE81      -0.0202
     69  CD1       31.4150   77.0310   45.0510 C.ar   81  PHE81      -0.0042
     70  CD2       33.1500   76.5560   46.6270 C.ar   81  PHE81      -0.0042
     71  CE1       32.0260   76.1920   44.1150 C.ar   81  PHE81      -0.0003
     72  CE2       33.7650   75.7240   45.7090 C.ar   81  PHE81      -0.0003
     73  CZ        33.2000   75.5400   44.4430 C.ar   81  PHE81      -0.0000
     74  N         31.0490   78.6460   50.3750 N.am   82  GLU82      -0.1965
     75  CA        31.0860   79.8240   51.2350 C.3    82  GLU82       0.1733
     76  C         31.2350   81.0780   50.3470 C.2    82  GLU82       0.2616
     77  O         31.9740   81.0550   49.3660 O.2    82  GLU82      -0.2715
     78  CB        32.2490   79.7420   52.2380 C.3    82  GLU82       0.0429
     79  CG        33.6470   79.6990   51.6130 C.3    82  GLU82       0.1163
     80  CD        34.7830   79.8980   52.6080 C.2    82  GLU82       0.3649
     81  OE1       34.6510   80.6950   53.5670 O.co2  82  GLU82      -0.2457
     82  OE2       35.8360   79.2670   52.4230 O.co2  82  GLU82      -0.2457
     83  N         30.5250   82.1460   50.6980 N.am   83  PHE83      -0.1960
     84  CA        30.6290   83.4240   49.9930 C.3    83  PHE83       0.1771
     85  C         31.7850   84.2530   50.5530 C.2    83  PHE83       0.2619
     86  O         31.9220   84.4090   51.7700 O.2    83  PHE83      -0.2715
     87  CB        29.3090   84.1990   50.0800 C.3    83  PHE83       0.0574
     88  CG        29.3420   85.5620   49.4050 C.ar   83  PHE83      -0.0200
     89  CD1       29.2420   85.6780   48.0150 C.ar   83  PHE83      -0.0042
     90  CD2       29.4780   86.7270   50.1680 C.ar   83  PHE83      -0.0042
     91  CE1       29.2800   86.9380   47.3970 C.ar   83  PHE83      -0.0003
     92  CE2       29.5220   87.9840   49.5630 C.ar   83  PHE83      -0.0003
     93  CZ        29.4150   88.0900   48.1790 C.ar   83  PHE83      -0.0000
     94  N         32.6370   84.7560   49.6650 N.am   84  LEU84      -0.1963
     95  CA        33.6370   85.7400   50.0590 C.3    84  LEU84       0.1728
     96  C         33.2670   87.0940   49.4400 C.2    84  LEU84       0.2616
     97  O         32.6210   87.1450   48.4050 O.2    84  LEU84      -0.2715
     98  CB        35.0500   85.2830   49.6840 C.3    84  LEU84       0.0311
     99  CG        35.5980   84.3080   50.7430 C.3    84  LEU84       0.0022
    100  CD1       35.7950   82.9120   50.1540 C.3    84  LEU84       0.0001
    101  CD2       36.8530   84.8000   51.4280 C.3    84  LEU84       0.0001
    102  N         33.6630   88.1780   50.0970 N.am   85  HIS85      -0.1959
    103  CA        33.1550   89.5060   49.7670 C.3    85  HIS85       0.1787
    104  C         33.6650   90.0990   48.4490 C.2    85  HIS85       0.2620
    105  O         32.9460   90.8660   47.8040 O.2    85  HIS85      -0.2715
    106  CB        33.3920   90.4610   50.9370 C.3    85  HIS85       0.0785
    107  CG        32.6820   90.0480   52.1890 C.ar   85  HIS85       0.0821
    108  ND1       31.3580   90.3550   52.4260 N.ar   85  HIS85      -0.2267
    109  CD2       33.0970   89.3180   53.2520 C.ar   85  HIS85       0.1154
    110  CE1       30.9950   89.8510   53.5920 C.ar   85  HIS85       0.1986
    111  NE2       32.0320   89.2200   54.1150 N.ar   85  HIS85      -0.2212
    112  N         34.8810   89.7300   48.0450 N.am   86  GLN86      -0.1963
    113  CA        35.4720   90.2370   46.7990 C.3    86  GLN86       0.1733
    114  C         36.6850   89.4220   46.3570 C.2    86  GLN86       0.2616
    115  O         37.1810   88.5800   47.1080 O.2    86  GLN86      -0.2715
    116  CB        35.8720   91.7160   46.9560 C.3    86  GLN86       0.0408
    117  CG        36.3880   92.3340   45.6390 C.3    86  GLN86       0.0908
    118  CD        36.3590   93.8390   45.6410 C.2    86  GLN86       0.2608
    119  OE1       35.6610   94.4490   44.8260 O.2    86  GLN86      -0.2717
    120  NE2       37.1330   94.4490   46.5300 N.am   86  GLN86      -0.0878
    121  N         37.1600   89.6740   45.1340 N.am   87  ASP87      -0.1971
    122  CA        38.3930   89.0530   44.6540 C.3    87  ASP87       0.1709
    123  C         39.5620   90.0410   44.6850 C.2    87  ASP87       0.2293
    124  O         39.3570   91.2580   44.7140 O.2    87  ASP87      -0.2864
    125  CB        38.2210   88.3960   43.2680 C.3    87  ASP87       0.1436
    126  CG        37.9920   89.4110   42.1430 C.2    87  ASP87       0.3671
    127  OD1       38.8980   90.2030   41.8510 O.co2  87  ASP87      -0.2456
    128  OD2       36.9550   89.4650   41.4640 O.co2  87  ASP87      -0.2456
    129  N         39.8710   92.9210   41.9170 N.3    90  LYS90      -0.1245
    130  CA        39.0460   94.1130   42.1130 C.3    90  LYS90       0.1561
    131  C         39.5270   94.9550   43.3000 C.2    90  LYS90       0.2260
    132  O         39.4060   96.1860   43.2810 O.2    90  LYS90      -0.2867
    133  CB        37.5660   93.7570   42.2250 C.3    90  LYS90       0.0271
    134  CG        36.9910   93.1500   40.9350 C.3    90  LYS90       0.0035
    135  CD        35.5050   92.8490   41.0760 C.3    90  LYS90       0.0206
    136  CE        35.0470   91.8090   40.0750 C.3    90  LYS90       0.1093
    137  NZ        33.6850   91.2900   40.4260 N.3    90  LYS90      -0.1314
    138  N         45.6580   83.4360   39.8540 N.3   130  LYS130     -0.1245
    139  CA        45.5820   84.7830   39.2910 C.3   130  LYS130      0.1561
    140  C         44.6910   85.5520   40.2520 C.2   130  LYS130      0.2260
    141  O         43.9180   84.9330   40.9890 O.2   130  LYS130     -0.2867
    142  CB        45.0260   84.7600   37.8550 C.3   130  LYS130      0.0271
    143  CG        43.6150   84.2230   37.7010 C.3   130  LYS130      0.0035
    144  CD        43.1610   84.2590   36.2380 C.3   130  LYS130      0.0206
    145  CE        41.7960   83.6240   36.0980 C.3   130  LYS130      0.1093
    146  NZ        41.3340   83.5390   34.6870 N.3   130  LYS130     -0.1314
    147  N         42.0530   87.2450   40.1190 N.3   132  GLN132     -0.1231
    148  CA        40.6280   87.0080   39.9240 C.3   132  GLN132      0.1698
    149  C         40.1310   85.7450   40.6620 C.2   132  GLN132      0.2592
    150  O         38.9480   85.6480   41.0250 O.2   132  GLN132     -0.2718
    151  CB        40.3510   86.8790   38.4150 C.3   132  GLN132      0.0381
    152  CG        40.6400   88.1730   37.6180 C.3   132  GLN132      0.0905
    153  CD        42.1080   88.3530   37.1730 C.2   132  GLN132      0.2608
    154  OE1       42.9690   87.5170   37.4290 O.2   132  GLN132     -0.2717
    155  NE2       42.3720   89.4680   36.4910 N.am  132  GLN132     -0.0878
    156  N         41.0360   84.7880   40.8660 N.am  133  ASN133     -0.1974
    157  CA        40.6940   83.5200   41.5200 C.3   133  ASN133      0.1688
    158  C         41.0190   83.4760   43.0130 C.2   133  ASN133      0.2292
    159  O         40.9080   82.4210   43.6490 O.2   133  ASN133     -0.2864
    160  CB        41.3900   82.3650   40.8050 C.3   133  ASN133      0.1181
    161  CG        40.8700   82.1670   39.3880 C.2   133  ASN133      0.2629
    162  OD1       39.8290   82.7160   39.0160 O.2   133  ASN133     -0.2716
    163  ND2       41.5800   81.3750   38.6000 N.am  133  ASN133     -0.0877
    164  N         40.2050   85.0490   46.6690 N.3   135  LEU135     -0.1245
    165  CA        39.0730   85.7280   47.2710 C.3   135  LEU135      0.1561
    166  C         39.3670   86.2010   48.6770 C.2   135  LEU135      0.2260
    167  O         40.0240   85.5030   49.4520 O.2   135  LEU135     -0.2867
    168  CB        37.8560   84.8050   47.2640 C.3   135  LEU135      0.0270
    169  CG        37.5620   84.1200   45.9230 C.3   135  LEU135      0.0019
    170  CD1       36.3200   83.2720   46.0650 C.3   135  LEU135      0.0001
    171  CD2       37.4150   85.1280   44.7650 C.3   135  LEU135      0.0001
    172  N         40.6620   80.0230   45.1230 N.3   145  ALA145     -0.1231
    173  CA        39.4050   79.5910   44.5090 C.3   145  ALA145      0.1694
    174  C         39.5440   79.1690   43.0430 C.2   145  ALA145      0.2592
    175  O         40.6340   79.1660   42.4790 O.2   145  ALA145     -0.2718
    176  CB        38.3230   80.6560   44.6590 C.3   145  ALA145      0.0304
    177  N         38.4030   78.8360   42.4520 N.am  146  ASP146     -0.1974
    178  CA        38.3010   78.2730   41.1060 C.3   146  ASP146      0.1709
    179  C         39.3090   77.1680   40.8440 C.2   146  ASP146      0.2293
    180  O         40.3380   77.3780   40.1740 O.2   146  ASP146     -0.2864
    181  CB        38.3590   79.3440   40.0160 C.3   146  ASP146      0.1436
    182  CG        37.7310   78.8630   38.7100 C.2   146  ASP146      0.3671
    183  OD1       37.5230   77.6340   38.5580 O.co2 146  ASP146     -0.2456
    184  OD2       37.4120   79.6330   37.7850 O.co2 146  ASP146     -0.2456
@<TRIPOS>BOND
     1    29    28   ar
     2    30    28   ar
     3    28    27    1
     4    27    26    1
     5    26    23    1
     6    34    33    2
     7    25    24    2
     8   146   145    1
     9    33    32    1
    10    23    24    1
    11    23    22    1
    12    24    31   am
    13    22    20   am
    14    31    32    1
    15   145   144    1
    16   144   143    1
    17   155   153   am
    18    20    21    2
    19    20    19    1
    20   153   154    2
    21   153   152    1
    22    19    18    1
    23   152   151    1
    24   143   142    1
    25   184   182   ar
    26   142   139    1
    27    18    12   am
    28   151   148    1
    29    35    36    1
    30   183   182   ar
    31   163   161   am
    32   182   181    1
    33    13    12    2
    34   162   161    2
    35    12    11    1
    36   139   138    1
    37   139   140    1
    38   161   160    1
    39    38    37    2
    40   148   147    1
    41   148   149    1
    42    36    37    1
    43    36    39    1
    44    10    11    1
    45   181   178    1
    46   136   137    1
    47   136   135    1
    48   180   179    2
    49   140   141    2
    50    41    39    1
    51    11    14    1
    52    39    40    1
    53   149   156   am
    54   149   150    2
    55   160   157    1
    56   179   178    1
    57   156   157    1
    58   134   135    1
    59   134   133    1
    60   178   177    1
    61     3     2    1
    62     3     4    2
    63   128   126   ar
    64    14    16    1
    65    14    15    1
    66   157   158    1
    67     2     5    1
    68     2     1    1
    69   127   126   ar
    70   129   130    1
    71     5     6    1
    72   130   133    1
    73   130   131    1
    74   126   125    1
    75   177   174   am
    76   175   174    2
    77    15    17    1
    78     6     7    1
    79   158   159    2
    80   174   173    1
    81   125   122    1
    82   132   131    2
    83    42    43    1
    84     7     9   ar
    85     7     8   ar
    86    71    73   ar
    87    71    69   ar
    88    73    72   ar
    89   173   176    1
    90   173   172    1
    91    45    44    2
    92   122   123    1
    93   122   121    1
    94   123   124    2
    95   171   169    1
    96   119   118    2
    97    69    68   ar
    98    43    44    1
    99    43    46    1
   100   121   114   am
   101    46    47    1
   102    53    54    2
   103    53    52    1
   104   117   118    1
   105   117   116    1
   106   118   120   am
   107    72    70   ar
   108   169   170    1
   109   169   168    1
   110    55    52    1
   111    52    51    1
   112    68    70   ar
   113    68    67    1
   114   114   113    1
   115   114   115    2
   116   164   165    1
   117   113   116    1
   118   113   112    1
   119    47    48    1
   120    61    60    1
   121    48    49    1
   122   168   165    1
   123   165   166    1
   124    67    64    1
   125    91    89   ar
   126    91    93   ar
   127    63    64    1
   128   105   104    2
   129    89    88   ar
   130   112   104   am
   131    93    92   ar
   132    60    62    1
   133    60    57    1
   134    64    65    1
   135    97    96    2
   136   104   103    1
   137    49    50    1
   138   166   167    2
   139    66    65    2
   140    59    58    2
   141    77    76    2
   142    65    74   am
   143    88    87    1
   144    88    90   ar
   145    96    95    1
   146    96   102   am
   147    56    57    1
   148    57    58    1
   149    92    90   ar
   150    94    95    1
   151    94    85   am
   152    98    95    1
   153    98    99    1
   154   103   102    1
   155   103   106    1
   156    84    87    1
   157    84    85    1
   158    84    83    1
   159   100    99    1
   160    76    83   am
   161    76    75    1
   162    74    75    1
   163    85    86    2
   164    99   101    1
   165   106   107    1
   166    75    78    1
   167    79    78    1
   168    79    80    1
   169   107   108   ar
   170   107   109   ar
   171    82    80   ar
   172   108   110   ar
   173    80    81   ar
   174   109   111   ar
   175   110   111   ar
