@<TRIPOS>MOLECULE
tmp/1oiyC00.pdb
 166 159 0 0 0
SMALL
GASTEIGER

@<TRIPOS>ATOM
      1  N         23.1600   88.1260   42.1410 N.3     9  GLU9       -0.1245
      2  CA        23.7810   88.7530   41.0000 C.3     9  GLU9        0.1567
      3  C         24.7900   87.7490   40.4910 C.2     9  GLU9        0.2260
      4  O         25.2840   86.9150   41.2610 O.2     9  GLU9       -0.2867
      5  CB        24.4450   90.1050   41.3840 C.3     9  GLU9        0.0388
      6  CG        25.9090   90.0660   41.8330 C.3     9  GLU9        0.1160
      7  CD        26.1320   90.5810   43.2580 C.2     9  GLU9        0.3649
      8  OE1       25.1770   91.1550   43.8340 O.co2   9  GLU9       -0.2457
      9  OE2       27.2640   90.4210   43.8160 O.co2   9  GLU9       -0.2457
     10  N         28.4700   86.8100   39.0560 N.3    11  ILE11      -0.1231
     11  CA        29.8130   87.2620   39.4220 C.3    11  ILE11       0.1692
     12  C         30.8020   87.1200   38.2640 C.2    11  ILE11       0.2593
     13  O         31.5880   88.0330   38.0020 O.2    11  ILE11      -0.2718
     14  CB        30.3300   86.5030   40.6750 C.3    11  ILE11       0.0266
     15  CG1       29.6680   87.0750   41.9340 C.3    11  ILE11       0.0019
     16  CG2       31.8420   86.6230   40.8030 C.3    11  ILE11       0.0020
     17  CD1       29.4140   86.0770   42.9950 C.3    11  ILE11       0.0001
     18  N         30.7720   85.9820   37.5800 N.am   12  GLY12      -0.1942
     19  CA        31.7020   85.7220   36.5050 C.3    12  GLY12       0.2014
     20  C         31.7820   84.2710   36.1070 C.2    12  GLY12       0.2639
     21  O         31.1550   83.4270   36.6990 O.2    12  GLY12      -0.2714
     22  N         32.5690   84.0010   35.0830 N.am   13  GLU13      -0.1963
     23  CA        32.7220   82.6730   34.5200 C.3    13  GLU13       0.1733
     24  C         34.1910   82.2830   34.5750 C.2    13  GLU13       0.2616
     25  O         35.0330   82.9900   34.0690 O.2    13  GLU13      -0.2715
     26  CB        32.2540   82.6650   33.0590 C.3    13  GLU13       0.0429
     27  CG        31.1120   83.6270   32.7350 C.3    13  GLU13       0.1163
     28  CD        30.5770   83.4690   31.2960 C.2    13  GLU13       0.3649
     29  OE1       30.5070   82.3120   30.7790 O.co2  13  GLU13      -0.2457
     30  OE2       30.2170   84.5140   30.6860 O.co2  13  GLU13      -0.2457
     31  N         34.5100   81.1680   35.2070 N.am   14  GLY14      -0.1955
     32  CA        35.8870   80.7170   35.2710 C.3    14  GLY14       0.1869
     33  C         36.1920   79.8520   34.0730 C.2    14  GLY14       0.2309
     34  O         35.7830   80.1660   32.9560 O.2    14  GLY14      -0.2863
     35  N         29.3420   81.3790   37.7670 N.3    19  VAL19      -0.1245
     36  CA        29.3230   81.6170   39.2150 C.3    19  VAL19       0.1561
     37  C         28.4450   82.8120   39.5970 C.2    19  VAL19       0.2260
     38  O         28.7240   83.9490   39.2080 O.2    19  VAL19      -0.2867
     39  CB        30.7480   81.7790   39.7970 C.3    19  VAL19       0.0252
     40  CG1       30.6870   82.0950   41.2540 C.3    19  VAL19       0.0019
     41  CG2       31.6000   80.5220   39.5650 C.3    19  VAL19       0.0019
     42  N         28.3970   81.1480   46.8450 N.3    32  ALA32      -0.1245
     43  CA        28.7090   81.3050   45.4560 C.3    32  ALA32       0.1562
     44  C         28.2840   80.0060   44.8410 C.2    32  ALA32       0.2260
     45  O         28.7630   78.9550   45.2600 O.2    32  ALA32      -0.2867
     46  CB        30.2260   81.5210   45.2730 C.3    32  ALA32       0.0290
     47  N         39.4760   77.4280   48.8930 N.3    65  VAL65      -0.1245
     48  CA        38.0370   77.6890   48.9180 C.3    65  VAL65       0.1561
     49  C         37.2270   76.4330   49.3380 C.2    65  VAL65       0.2260
     50  O         37.5350   75.3050   48.9420 O.2    65  VAL65      -0.2867
     51  CB        37.5200   78.2850   47.5530 C.3    65  VAL65       0.0252
     52  CG1       37.6990   77.2980   46.3920 C.3    65  VAL65       0.0019
     53  CG2       36.0600   78.7090   47.6650 C.3    65  VAL65       0.0019
     54  N         29.4090   76.7970   47.3010 N.3    81  PHE81      -0.1227
     55  CA        30.7340   77.2490   47.7340 C.3    81  PHE81       0.1736
     56  C         30.5500   78.3410   48.7610 C.2    81  PHE81       0.2595
     57  O         29.5720   79.0810   48.6790 O.2    81  PHE81      -0.2718
     58  CB        31.4580   77.9060   46.5680 C.3    81  PHE81       0.0547
     59  CG        32.2870   76.9830   45.7490 C.ar   81  PHE81      -0.0202
     60  CD1       31.9970   76.7910   44.3970 C.ar   81  PHE81      -0.0042
     61  CD2       33.4050   76.3710   46.2830 C.ar   81  PHE81      -0.0042
     62  CE1       32.7910   75.9700   43.6280 C.ar   81  PHE81      -0.0003
     63  CE2       34.1870   75.5460   45.5020 C.ar   81  PHE81      -0.0003
     64  CZ        33.8680   75.3470   44.1700 C.ar   81  PHE81      -0.0000
     65  N         31.4700   78.4600   49.7110 N.am   82  GLU82      -0.1965
     66  CA        31.5040   79.6840   50.5160 C.3    82  GLU82       0.1733
     67  C         31.7040   80.9200   49.6030 C.2    82  GLU82       0.2616
     68  O         32.4090   80.8500   48.5880 O.2    82  GLU82      -0.2715
     69  CB        32.6340   79.6520   51.5610 C.3    82  GLU82       0.0429
     70  CG        34.0180   79.5150   50.9530 C.3    82  GLU82       0.1163
     71  CD        35.1280   79.7570   51.9340 C.2    82  GLU82       0.3649
     72  OE1       35.0640   80.7390   52.6950 O.co2  82  GLU82      -0.2457
     73  OE2       36.0920   78.9690   51.9170 O.co2  82  GLU82      -0.2457
     74  N         31.0450   82.0170   49.9700 N.am   83  PHE83      -0.1960
     75  CA        31.2490   83.2900   49.3360 C.3    83  PHE83       0.1771
     76  C         32.4180   84.0170   49.9810 C.2    83  PHE83       0.2619
     77  O         32.5740   84.0370   51.2130 O.2    83  PHE83      -0.2715
     78  CB        30.0090   84.1370   49.4590 C.3    83  PHE83       0.0574
     79  CG        30.1230   85.4740   48.8160 C.ar   83  PHE83      -0.0200
     80  CD1       29.9610   85.6190   47.4170 C.ar   83  PHE83      -0.0042
     81  CD2       30.3740   86.6060   49.5810 C.ar   83  PHE83      -0.0042
     82  CE1       30.0570   86.8860   46.7990 C.ar   83  PHE83      -0.0003
     83  CE2       30.4640   87.8550   48.9860 C.ar   83  PHE83      -0.0003
     84  CZ        30.3090   87.9950   47.5790 C.ar   83  PHE83      -0.0000
     85  N         33.2570   84.5950   49.1370 N.am   84  LEU84      -0.1963
     86  CA        34.2530   85.5500   49.5940 C.3    84  LEU84       0.1728
     87  C         33.9850   86.8900   48.9240 C.2    84  LEU84       0.2616
     88  O         33.4110   86.9410   47.8250 O.2    84  LEU84      -0.2715
     89  CB        35.6710   85.0430   49.2970 C.3    84  LEU84       0.0311
     90  CG        36.3180   84.1630   50.3730 C.3    84  LEU84       0.0022
     91  CD1       35.9480   82.7280   50.1520 C.3    84  LEU84       0.0001
     92  CD2       37.8260   84.3140   50.4060 C.3    84  LEU84       0.0001
     93  N         34.4000   87.9600   49.5910 N.am   85  HIS85      -0.1959
     94  CA        34.1760   89.3370   49.1320 C.3    85  HIS85       0.1787
     95  C         34.6120   89.7050   47.6950 C.2    85  HIS85       0.2620
     96  O         33.9000   90.4200   47.0040 O.2    85  HIS85      -0.2715
     97  CB        34.8590   90.2940   50.0900 C.3    85  HIS85       0.0785
     98  CG        34.5300   91.7260   49.8390 C.ar   85  HIS85       0.0821
     99  ND1       33.2670   92.2440   50.0440 N.ar   85  HIS85      -0.2267
    100  CD2       35.2960   92.7540   49.4000 C.ar   85  HIS85       0.1154
    101  CE1       33.2710   93.5310   49.7400 C.ar   85  HIS85       0.1986
    102  NE2       34.4870   93.8640   49.3420 N.ar   85  HIS85      -0.2212
    103  N         35.7770   89.2530   47.2540 N.am   86  GLN86      -0.1963
    104  CA        36.2620   89.6170   45.9230 C.3    86  GLN86       0.1733
    105  C         37.5570   88.9130   45.5900 C.2    86  GLN86       0.2616
    106  O         38.0980   88.2170   46.4400 O.2    86  GLN86      -0.2715
    107  CB        36.4020   91.1380   45.7700 C.3    86  GLN86       0.0408
    108  CG        37.3090   91.7960   46.7630 C.3    86  GLN86       0.0908
    109  CD        38.0240   92.9720   46.1570 C.2    86  GLN86       0.2608
    110  OE1       38.8830   92.7970   45.2750 O.2    86  GLN86      -0.2717
    111  NE2       37.6720   94.1790   46.6040 N.am   86  GLN86      -0.0878
    112  N         38.0390   89.0600   44.3530 N.am   87  ASP87      -0.1971
    113  CA        39.2680   88.3540   43.9550 C.3    87  ASP87       0.1709
    114  C         40.4880   89.2280   44.0770 C.2    87  ASP87       0.2293
    115  O         40.3680   90.4050   44.4080 O.2    87  ASP87      -0.2864
    116  CB        39.1810   87.6120   42.5910 C.3    87  ASP87       0.1436
    117  CG        38.8800   88.5240   41.4130 C.2    87  ASP87       0.3671
    118  OD1       39.8290   88.7980   40.6340 O.co2  87  ASP87      -0.2456
    119  OD2       37.7250   88.9670   41.1610 O.co2  87  ASP87      -0.2456
    120  N         41.0060   92.0550   41.3600 N.3    90  LYS90      -0.1245
    121  CA        40.1810   93.2200   41.6520 C.3    90  LYS90       0.1561
    122  C         40.6650   93.9350   42.8870 C.2    90  LYS90       0.2260
    123  O         40.2530   95.0700   43.1600 O.2    90  LYS90      -0.2867
    124  CB        38.7300   92.7960   41.8510 C.3    90  LYS90       0.0271
    125  CG        37.7080   93.8470   41.5050 C.3    90  LYS90       0.0035
    126  CD        36.9090   94.2810   42.7450 C.3    90  LYS90       0.0206
    127  CE        35.5470   94.8660   42.3580 C.3    90  LYS90       0.1093
    128  NZ        34.8510   95.4480   43.5390 N.3    90  LYS90      -0.1314
    129  N         42.9920   86.2450   39.4600 N.3   132  GLN132     -0.1231
    130  CA        41.5470   86.1910   39.2400 C.3   132  GLN132      0.1698
    131  C         40.9970   85.0580   40.1040 C.2   132  GLN132      0.2592
    132  O         39.8550   85.1020   40.5700 O.2   132  GLN132     -0.2718
    133  CB        41.2050   85.9180   37.7640 C.3   132  GLN132      0.0381
    134  CG        41.7090   86.9380   36.7680 C.3   132  GLN132      0.0905
    135  CD        43.2230   87.0140   36.6860 C.2   132  GLN132      0.2608
    136  OE1       43.9120   86.0560   36.2700 O.2   132  GLN132     -0.2717
    137  NE2       43.7530   88.1540   37.1030 N.am  132  GLN132     -0.0878
    138  N         41.8520   84.0610   40.2930 N.am  133  ASN133     -0.1974
    139  CA        41.5210   82.8250   40.9330 C.3   133  ASN133      0.1688
    140  C         41.8360   82.7750   42.4200 C.2   133  ASN133      0.2292
    141  O         41.8640   81.7120   43.0280 O.2   133  ASN133     -0.2864
    142  CB        42.2120   81.7080   40.1560 C.3   133  ASN133      0.1181
    143  CG        41.5180   81.4490   38.8380 C.2   133  ASN133      0.2629
    144  OD1       40.7030   82.2660   38.4190 O.2   133  ASN133     -0.2716
    145  ND2       41.8100   80.3290   38.1970 N.am  133  ASN133     -0.0877
    146  N         40.7880   84.6160   46.0560 N.3   135  LEU135     -0.1245
    147  CA        39.7050   85.3800   46.6520 C.3   135  LEU135      0.1561
    148  C         40.0440   85.7180   48.0730 C.2   135  LEU135      0.2260
    149  O         40.8060   85.0050   48.7320 O.2   135  LEU135     -0.2867
    150  CB        38.4030   84.5700   46.6050 C.3   135  LEU135      0.0270
    151  CG        38.2730   83.6320   45.3910 C.3   135  LEU135      0.0019
    152  CD1       36.8740   83.0700   45.2950 C.3   135  LEU135      0.0001
    153  CD2       38.6760   84.2940   44.0440 C.3   135  LEU135      0.0001
    154  N         41.4050   79.4430   44.4840 N.3   145  ALA145     -0.1231
    155  CA        40.1110   79.0560   43.9030 C.3   145  ALA145      0.1694
    156  C         40.2120   78.7230   42.4330 C.2   145  ALA145      0.2592
    157  O         41.2650   78.9140   41.8090 O.2   145  ALA145     -0.2718
    158  CB        39.0440   80.1360   44.1420 C.3   145  ALA145      0.0304
    159  N         39.0750   78.2680   41.9000 N.am  146  ASP146     -0.1974
    160  CA        38.9380   77.6370   40.5950 C.3   146  ASP146      0.1709
    161  C         39.8860   76.4860   40.3730 C.2   146  ASP146      0.2293
    162  O         41.0110   76.6670   39.9020 O.2   146  ASP146     -0.2864
    163  CB        39.0170   78.6290   39.4310 C.3   146  ASP146      0.1436
    164  CG        38.2320   78.1400   38.2290 C.2   146  ASP146      0.3671
    165  OD1       38.1540   76.8890   38.0950 O.co2 146  ASP146     -0.2456
    166  OD2       37.6430   78.8930   37.4040 O.co2 146  ASP146     -0.2456
@<TRIPOS>BOND
     1    30    28   ar
     2    29    28   ar
     3    28    27    1
     4    27    26    1
     5    34    33    2
     6    26    23    1
     7    25    24    2
     8    33    32    1
     9    23    24    1
    10    23    22    1
    11    24    31   am
    12    22    20   am
    13    31    32    1
    14    20    19    1
    15    20    21    2
    16   136   135    2
    17    19    18    1
    18   135   134    1
    19   135   137   am
    20   134   133    1
    21   166   164   ar
    22    18    12   am
    23   133   130    1
    24    35    36    1
    25    13    12    2
    26   165   164   ar
    27   145   143   am
    28   164   163    1
    29    12    11    1
    30   144   143    2
    31   143   142    1
    32    10    11    1
    33    38    37    2
    34    36    37    1
    35    36    39    1
    36   130   129    1
    37   130   131    1
    38    11    14    1
    39   163   160    1
    40    41    39    1
    41    39    40    1
    42   162   161    2
    43   131   138   am
    44   131   132    2
    45   142   139    1
    46   138   139    1
    47   161   160    1
    48     3     2    1
    49     3     4    2
    50   160   159    1
    51   118   117   ar
    52    14    16    1
    53    14    15    1
    54   139   140    1
    55     2     5    1
    56     2     1    1
    57   119   117   ar
    58   120   121    1
    59     5     6    1
    60   117   116    1
    61   125   124    1
    62   125   126    1
    63   121   124    1
    64   121   122    1
    65   157   156    2
    66     6     7    1
    67   159   156   am
    68    15    17    1
    69   127   126    1
    70   127   128    1
    71   140   141    2
    72   156   155    1
    73   116   113    1
    74   122   123    2
    75     7     9   ar
    76     7     8   ar
    77    62    64   ar
    78    62    60   ar
    79   155   158    1
    80   155   154    1
    81   113   114    1
    82   113   112    1
    83   153   151    1
    84   114   115    2
    85    64    63   ar
    86   112   105   am
    87    60    59   ar
    88    44    45    2
    89    44    43    1
    90    46    43    1
    91   110   109    2
    92   152   151    1
    93   151   150    1
    94    43    42    1
    95    63    61   ar
    96   105   104    1
    97   105   106    2
    98    59    61   ar
    99    59    58    1
   100   107   104    1
   101   107   108    1
   102   104   103    1
   103   146   147    1
   104   109   111   am
   105   109   108    1
   106    52    51    1
   107    58    55    1
   108   150   147    1
   109   147   148    1
   110    82    80   ar
   111    82    84   ar
   112    96    95    2
   113   103    95   am
   114    54    55    1
   115    80    79   ar
   116    51    53    1
   117    51    48    1
   118    84    83   ar
   119    95    94    1
   120    55    56    1
   121    88    87    2
   122   148   149    2
   123    68    67    2
   124    57    56    2
   125    56    65   am
   126    79    78    1
   127    79    81   ar
   128    47    48    1
   129    48    49    1
   130    87    93   am
   131    87    86    1
   132    50    49    2
   133    83    81   ar
   134    94    93    1
   135    94    97    1
   136    85    86    1
   137    85    76   am
   138    89    86    1
   139    89    90    1
   140    75    78    1
   141    75    74    1
   142    75    76    1
   143   102   100   ar
   144   102   101   ar
   145   100    98   ar
   146    67    74   am
   147    67    66    1
   148    65    66    1
   149   101    99   ar
   150    98    99   ar
   151    98    97    1
   152    76    77    2
   153    91    90    1
   154    90    92    1
   155    66    69    1
   156    70    69    1
   157    70    71    1
   158    73    71   ar
   159    71    72   ar
