@<TRIPOS>MOLECULE
tmp/1oizA01.pdb
 242 227 0 0 0
SMALL
GASTEIGER

@<TRIPOS>ATOM
      1  N         47.3750   -0.6410   62.4040 N.3    92  TYR92      -0.1241
      2  CA        46.5550   -0.8900   61.2290 C.3    92  TYR92       0.1605
      3  C         46.8300    0.1070   60.1010 C.2    92  TYR92       0.2264
      4  O         46.7320   -0.2400   58.9210 O.2    92  TYR92      -0.2867
      5  CB        45.0660   -0.8580   61.6100 C.3    92  TYR92       0.0534
      6  CG        44.1500   -0.8300   60.4260 C.ar   92  TYR92      -0.0201
      7  CD1       44.0520   -1.9310   59.5710 C.ar   92  TYR92      -0.0009
      8  CD2       43.3920    0.3050   60.1330 C.ar   92  TYR92      -0.0009
      9  CE1       43.2300   -1.8990   58.4560 C.ar   92  TYR92       0.0417
     10  CE2       42.5730    0.3420   59.0280 C.ar   92  TYR92       0.0417
     11  CZ        42.4930   -0.7600   58.1950 C.ar   92  TYR92       0.1957
     12  OH        41.6830   -0.7350   57.0890 O.3    92  TYR92      -0.2866
     13  N         48.5730    6.6190   51.6380 N.3   107  LEU107     -0.1245
     14  CA        47.9940    5.9960   52.8260 C.3   107  LEU107      0.1561
     15  C         48.2610    4.4960   52.8090 C.2   107  LEU107      0.2260
     16  O         48.1330    3.8570   51.7660 O.2   107  LEU107     -0.2867
     17  CB        46.4770    6.2130   52.8420 C.3   107  LEU107      0.0270
     18  CG        45.9520    7.6140   53.1700 C.3   107  LEU107      0.0019
     19  CD1       46.3220    8.6380   52.0920 C.3   107  LEU107      0.0001
     20  CD2       44.4630    7.4950   53.2730 C.3   107  LEU107      0.0001
     21  N         47.3240    0.7380   54.6880 N.3   109  TYR109     -0.1241
     22  CA        46.4720   -0.0380   55.5900 C.3   109  TYR109      0.1605
     23  C         46.9820   -1.4780   55.6390 C.2   109  TYR109      0.2264
     24  O         47.2890   -2.0600   54.5920 O.2   109  TYR109     -0.2867
     25  CB        45.0340   -0.0700   55.0820 C.3   109  TYR109      0.0534
     26  CG        44.3660    1.2800   54.9400 C.ar  109  TYR109     -0.0201
     27  CD1       43.7000    1.8590   56.0220 C.ar  109  TYR109     -0.0009
     28  CD2       44.3850    1.9700   53.7190 C.ar  109  TYR109     -0.0009
     29  CE1       43.0620    3.0810   55.9090 C.ar  109  TYR109      0.0417
     30  CE2       43.7480    3.2050   53.5900 C.ar  109  TYR109      0.0417
     31  CZ        43.0960    3.7530   54.6960 C.ar  109  TYR109      0.1957
     32  OH        42.4540    4.9660   54.5980 O.3   109  TYR109     -0.2866
     33  N         45.9770   -5.1580   56.8860 N.3   111  ILE111     -0.1245
     34  CA        44.8620   -6.0010   57.2990 C.3   111  ILE111      0.1561
     35  C         45.2080   -6.9380   58.4690 C.2   111  ILE111      0.2260
     36  O         44.3390   -7.2440   59.3130 O.2   111  ILE111     -0.2867
     37  CB        44.3220   -6.7530   56.0300 C.3   111  ILE111      0.0252
     38  CG1       43.0160   -6.1160   55.5420 C.3   111  ILE111      0.0019
     39  CG2       44.1420   -8.2380   56.2840 C.3   111  ILE111      0.0019
     40  CD1       43.1700   -4.7730   54.8550 C.3   111  ILE111      0.0001
     41  N         44.2440   -5.6240   61.8780 N.3   114  TRP114     -0.1241
     42  CA        42.8220   -5.5170   62.1890 C.3   114  TRP114      0.1605
     43  C         42.3170   -6.8520   62.7620 C.2   114  TRP114      0.2264
     44  O         42.2420   -7.8490   62.0390 O.2   114  TRP114     -0.2867
     45  CB        42.0320   -5.1280   60.9270 C.3   114  TRP114      0.0550
     46  CG        40.5280   -5.2710   61.0380 C.ar  114  TRP114      0.0003
     47  CD1       39.7700   -5.2640   62.1820 C.ar  114  TRP114      0.0946
     48  CD2       39.6030   -5.4150   59.9530 C.ar  114  TRP114      0.0152
     49  NE1       38.4390   -5.4100   61.8730 N.ar  114  TRP114     -0.2442
     50  CE2       38.3060   -5.5120   60.5130 C.ar  114  TRP114      0.0810
     51  CE3       39.7370   -5.4770   58.5580 C.ar  114  TRP114      0.0012
     52  CZ2       37.1540   -5.6600   59.7280 C.ar  114  TRP114      0.0191
     53  CZ3       38.5900   -5.6320   57.7750 C.ar  114  TRP114      0.0001
     54  CH2       37.3210   -5.7130   58.3590 C.ar  114  TRP114      0.0015
     55  N         33.8850   -3.8140   60.7080 N.3   121  ALA121     -0.1245
     56  CA        34.2270   -3.1380   59.4540 C.3   121  ALA121      0.1562
     57  C         33.9730   -1.6330   59.5460 C.2   121  ALA121      0.2260
     58  O         34.6930   -0.8360   58.9340 O.2   121  ALA121     -0.2867
     59  CB        33.4630   -3.7480   58.2860 C.3   121  ALA121      0.0290
     60  N         36.8480    0.1930   61.3370 N.3   124  VAL124     -0.1231
     61  CA        37.9350    0.2770   60.3690 C.3   124  VAL124      0.1692
     62  C         37.6430    1.3650   59.3220 C.2   124  VAL124      0.2592
     63  O         38.5430    2.1330   58.9060 O.2   124  VAL124     -0.2718
     64  CB        38.1480   -1.1220   59.7330 C.3   124  VAL124      0.0266
     65  CG1       39.1350   -1.0760   58.6320 C.3   124  VAL124      0.0020
     66  CG2       38.6210   -2.1080   60.8100 C.3   124  VAL124      0.0020
     67  N         36.3730    1.4550   58.9320 N.am  125  PHE125     -0.1976
     68  CA        35.9290    2.5060   58.0280 C.3   125  PHE125      0.1639
     69  C         36.0340    3.8860   58.7010 C.2   125  PHE125      0.2290
     70  O         36.4370    4.8610   58.0630 O.2   125  PHE125     -0.2864
     71  CB        34.5050    2.2180   57.5700 C.3   125  PHE125      0.0560
     72  CG        34.2300    2.5980   56.1380 C.ar  125  PHE125     -0.0200
     73  CD1       33.5550    1.7200   55.3040 C.ar  125  PHE125     -0.0042
     74  CD2       34.6180    3.8400   55.6300 C.ar  125  PHE125     -0.0042
     75  CE1       33.2710    2.0540   53.9870 C.ar  125  PHE125     -0.0003
     76  CE2       34.3410    4.1840   54.3050 C.ar  125  PHE125     -0.0003
     77  CZ        33.6510    3.2850   53.4880 C.ar  125  PHE125     -0.0000
     78  N         39.5340    5.2890   58.2350 N.3   128  SER128     -0.1202
     79  CA        39.7020    5.9280   56.9200 C.3   128  SER128      0.2020
     80  C         39.0450    7.2890   56.8520 C.2   128  SER128      0.2618
     81  O         39.6030    8.1970   56.2540 O.2   128  SER128     -0.2717
     82  CB        39.1300    5.0830   55.7720 C.3   128  SER128      0.2103
     83  OG        39.9400    3.9630   55.5260 O.3   128  SER128     -0.2182
     84  N         37.8640    7.4250   57.4600 N.am  129  LEU129     -0.1979
     85  CA        37.1370    8.6920   57.4300 C.3   129  LEU129      0.1596
     86  C         37.8820    9.7710   58.1820 C.2   129  LEU129      0.2287
     87  O         38.0080   10.9020   57.7000 O.2   129  LEU129     -0.2864
     88  CB        35.7200    8.5470   58.0150 C.3   129  LEU129      0.0297
     89  CG        34.5890    8.6480   56.9990 C.3   129  LEU129      0.0022
     90  CD1       34.6760    9.8920   56.0890 C.3   129  LEU129      0.0001
     91  CD2       34.6030    7.3910   56.1490 C.3   129  LEU129      0.0001
     92  N         40.9320   10.7430   56.1790 N.3   132  SER132     -0.1217
     93  CA        40.4210   11.5460   55.0640 C.3   132  SER132      0.1889
     94  C         40.1110   12.9900   55.4100 C.2   132  SER132      0.2288
     95  O         40.5040   13.9080   54.6650 O.2   132  SER132     -0.2866
     96  CB        39.1670   10.9030   54.4730 C.3   132  SER132      0.2089
     97  OG        39.5060    9.6420   53.9430 O.3   132  SER132     -0.2183
     98  N         43.5710   14.7990   56.0780 N.3   135  ILE135     -0.1245
     99  CA        44.4480   15.0520   54.9250 C.3   135  ILE135      0.1561
    100  C         43.8480   15.9970   53.8830 C.2   135  ILE135      0.2260
    101  O         44.5820   16.7160   53.2080 O.2   135  ILE135     -0.2867
    102  CB        44.9480   13.7480   54.2840 C.3   135  ILE135      0.0252
    103  CG1       43.7840   12.9700   53.6390 C.3   135  ILE135      0.0019
    104  CG2       45.7510   12.9210   55.3360 C.3   135  ILE135      0.0019
    105  CD1       44.1730   11.6230   53.0460 C.3   135  ILE135      0.0001
    106  N         45.1110   11.3050   46.3420 N.3   146  ILE146     -0.1245
    107  CA        45.7010   10.3000   47.2160 C.3   146  ILE146      0.1561
    108  C         45.9330    8.9650   46.5130 C.2   146  ILE146      0.2260
    109  O         45.2620    8.6410   45.5310 O.2   146  ILE146     -0.2867
    110  CB        44.8130   10.0800   48.4860 C.3   146  ILE146      0.0252
    111  CG1       43.4570    9.4480   48.1250 C.3   146  ILE146      0.0019
    112  CG2       44.6070   11.3990   49.2390 C.3   146  ILE146      0.0019
    113  CD1       43.4150    7.9200   48.3370 C.3   146  ILE146      0.0001
    114  N         46.1850    4.8440   47.9650 N.3   148  ALA148     -0.1245
    115  CA        46.1030    3.9780   49.1280 C.3   148  ALA148      0.1562
    116  C         46.7460    2.6310   48.8120 C.2   148  ALA148      0.2260
    117  O         46.5670    2.0990   47.7120 O.2   148  ALA148     -0.2867
    118  CB        44.6700    3.8010   49.5500 C.3   148  ALA148      0.0290
    119  N         46.8990   -1.2120   50.3360 N.3   150  PHE150     -0.1241
    120  CA        46.3270   -2.1790   51.2570 C.3   150  PHE150      0.1605
    121  C         47.2160   -3.4050   51.2790 C.2   150  PHE150      0.2264
    122  O         47.3450   -4.1100   50.2710 O.2   150  PHE150     -0.2867
    123  CB        44.9000   -2.5520   50.8380 C.3   150  PHE150      0.0534
    124  CG        43.9050   -1.4230   50.9690 C.ar  150  PHE150     -0.0203
    125  CD1       43.7480   -0.4940   49.9420 C.ar  150  PHE150     -0.0042
    126  CD2       43.1280   -1.2940   52.1230 C.ar  150  PHE150     -0.0042
    127  CE1       42.8160    0.5470   50.0510 C.ar  150  PHE150     -0.0003
    128  CE2       42.1910   -0.2550   52.2410 C.ar  150  PHE150     -0.0003
    129  CZ        42.0420    0.6680   51.2020 C.ar  150  PHE150     -0.0000
    130  N         47.3730   -6.9020   52.3340 N.3   152  LEU152     -0.1245
    131  CA        46.4230   -7.9560   52.6960 C.3   152  LEU152      0.1561
    132  C         47.0620   -9.2310   53.2540 C.2   152  LEU152      0.2260
    133  O         46.3890  -10.2610   53.3550 O.2   152  LEU152     -0.2867
    134  CB        45.5340   -8.3160   51.5030 C.3   152  LEU152      0.0270
    135  CG        44.4160   -7.3920   51.0100 C.3   152  LEU152      0.0019
    136  CD1       43.0990   -8.1100   51.1940 C.3   152  LEU152      0.0001
    137  CD2       44.3760   -6.0090   51.6380 C.3   152  LEU152      0.0001
    138  N         45.0760  -11.7660   55.5500 N.3   155  TRP155     -0.1241
    139  CA        43.6600  -11.6620   55.1910 C.3   155  TRP155      0.1605
    140  C         42.9960  -12.9910   55.4810 C.2   155  TRP155      0.2264
    141  O         43.3640  -14.0090   54.8880 O.2   155  TRP155     -0.2867
    142  CB        43.5300  -11.3300   53.7040 C.3   155  TRP155      0.0550
    143  CG        42.1290  -11.3650   53.1280 C.ar  155  TRP155      0.0003
    144  CD1       41.5350  -12.4130   52.4680 C.ar  155  TRP155      0.0946
    145  CD2       41.1610  -10.3060   53.1370 C.ar  155  TRP155      0.0152
    146  NE1       40.2640  -12.0680   52.0780 N.ar  155  TRP155     -0.2442
    147  CE2       40.0070  -10.7820   52.4740 C.ar  155  TRP155      0.0810
    148  CE3       41.1480   -8.9950   53.6450 C.ar  155  TRP155      0.0012
    149  CZ2       38.8570   -9.9980   52.3030 C.ar  155  TRP155      0.0191
    150  CZ3       40.0000   -8.2140   53.4690 C.ar  155  TRP155      0.0001
    151  CH2       38.8730   -8.7240   52.8040 C.ar  155  TRP155      0.0015
    152  N         32.6790   -7.8470   55.1920 N.3   163  ILE163     -0.1245
    153  CA        32.3670   -7.0990   53.9790 C.3   163  ILE163      0.1561
    154  C         31.0670   -7.6220   53.3750 C.2   163  ILE163      0.2260
    155  O         31.0740   -8.4620   52.4780 O.2   163  ILE163     -0.2867
    156  CB        33.5520   -7.1340   52.9640 C.3   163  ILE163      0.0252
    157  CG1       34.9120   -7.0350   53.6840 C.3   163  ILE163      0.0019
    158  CG2       33.3870   -6.0330   51.8870 C.3   163  ILE163      0.0019
    159  CD1       35.1650   -5.7140   54.4160 C.3   163  ILE163      0.0001
    160  N         28.3710   -2.9710   53.2840 N.3   167  VAL167     -0.1245
    161  CA        29.7110   -2.4230   53.4340 C.3   167  VAL167      0.1561
    162  C         30.3500   -2.1880   52.0520 C.2   167  VAL167      0.2260
    163  O         30.9640   -1.1560   51.8240 O.2   167  VAL167     -0.2867
    164  CB        30.6190   -3.3200   54.3420 C.3   167  VAL167      0.0252
    165  CG1       32.0500   -2.7940   54.3850 C.3   167  VAL167      0.0019
    166  CG2       30.0490   -3.4160   55.7730 C.3   167  VAL167      0.0019
    167  N         31.9180    1.3150   50.6130 N.3   171  ILE171     -0.1245
    168  CA        33.3020    1.4180   50.1240 C.3   171  ILE171      0.1561
    169  C         33.3390    2.0370   48.7250 C.2   171  ILE171      0.2260
    170  O         34.1180    2.9650   48.4690 O.2   171  ILE171     -0.2867
    171  CB        33.9940    0.0310   50.1020 C.3   171  ILE171      0.0252
    172  CG1       34.2780   -0.4670   51.5290 C.3   171  ILE171      0.0019
    173  CG2       35.3010    0.0720   49.2930 C.3   171  ILE171      0.0019
    174  CD1       34.6040   -1.9680   51.5620 C.3   171  ILE171      0.0001
    175  N         32.7380    5.9700   48.7870 N.3   174  VAL174     -0.1231
    176  CA        33.8510    6.8570   49.1630 C.3   174  VAL174      0.1692
    177  C         34.9810    6.8730   48.1370 C.2   174  VAL174      0.2591
    178  O         35.6860    7.8760   48.0170 O.2   174  VAL174     -0.2718
    179  CB        34.4010    6.5720   50.5570 C.3   174  VAL174      0.0266
    180  CG1       33.3380    6.8610   51.5690 C.3   174  VAL174      0.0020
    181  CG2       34.9150    5.1420   50.6810 C.3   174  VAL174      0.0020
    182  N         35.1320    5.7770   47.3940 N.am  175  LEU175     -0.1980
    183  CA        36.1230    5.7230   46.3060 C.3   175  LEU175      0.1596
    184  C         35.7120    6.4890   45.0540 C.2   175  LEU175      0.2287
    185  O         36.5690    6.8050   44.2080 O.2   175  LEU175     -0.2864
    186  CB        36.4540    4.2700   45.9420 C.3   175  LEU175      0.0297
    187  CG        37.0490    3.3860   47.0430 C.3   175  LEU175      0.0022
    188  CD1       37.1550    1.9320   46.5610 C.3   175  LEU175      0.0001
    189  CD2       38.4130    3.8840   47.5350 C.3   175  LEU175      0.0001
    190  N         33.1630   11.4340   48.7150 N.3   179  PHE179     -0.1241
    191  CA        34.1300   12.1550   49.5590 C.3   179  PHE179      0.1605
    192  C         35.0250   13.0570   48.7200 C.2   179  PHE179      0.2264
    193  O         35.4850   12.6230   47.6640 O.2   179  PHE179     -0.2867
    194  CB        34.9930   11.2110   50.4310 C.3   179  PHE179      0.0534
    195  CG        35.6970   11.9310   51.5410 C.ar  179  PHE179     -0.0203
    196  CD1       36.9400   12.5480   51.3250 C.ar  179  PHE179     -0.0042
    197  CD2       35.0860   12.0780   52.7720 C.ar  179  PHE179     -0.0042
    198  CE1       37.5440   13.2820   52.3320 C.ar  179  PHE179     -0.0003
    199  CE2       35.6990   12.7900   53.7820 C.ar  179  PHE179     -0.0003
    200  CZ        36.9270   13.3950   53.5620 C.ar  179  PHE179     -0.0000
    201  N         37.9780   13.7380   47.9590 N.3   181  LEU181     -0.1245
    202  CA        39.3700   13.4150   47.6620 C.3   181  LEU181      0.1561
    203  C         39.4070   12.6570   46.3450 C.2   181  LEU181      0.2260
    204  O         38.5320   11.8030   46.0790 O.2   181  LEU181     -0.2867
    205  CB        40.0150   12.5620   48.7650 C.3   181  LEU181      0.0270
    206  CG        40.3920   13.1960   50.1090 C.3   181  LEU181      0.0019
    207  CD1       40.7440   12.1000   51.1430 C.3   181  LEU181      0.0001
    208  CD2       41.5670   14.1980   49.9830 C.3   181  LEU181      0.0001
    209  N         40.8420    9.8630   44.2570 N.3   183  VAL183     -0.1245
    210  CA        41.5440    8.5950   44.4910 C.3   183  VAL183      0.1561
    211  C         42.2810    8.2870   43.2080 C.2   183  VAL183      0.2260
    212  O         41.6730    7.8720   42.2330 O.2   183  VAL183     -0.2867
    213  CB        40.5630    7.4370   44.8690 C.3   183  VAL183      0.0252
    214  CG1       41.3200    6.0930   45.1430 C.3   183  VAL183      0.0019
    215  CG2       39.7520    7.8480   46.0830 C.3   183  VAL183      0.0019
    216  N         44.6940    2.7580   43.7750 N.3   186  ILE186     -0.1245
    217  CA        44.4530    1.8000   44.8500 C.3   186  ILE186      0.1561
    218  C         45.3870    0.6290   44.5980 C.2   186  ILE186      0.2260
    219  O         45.3220   -0.0020   43.5400 O.2   186  ILE186     -0.2867
    220  CB        42.9810    1.2920   44.8290 C.3   186  ILE186      0.0252
    221  CG1       41.9930    2.4550   45.0360 C.3   186  ILE186      0.0019
    222  CG2       42.7760    0.1980   45.8840 C.3   186  ILE186      0.0019
    223  CD1       40.6240    2.2170   44.3660 C.3   186  ILE186      0.0001
    224  N         46.9000   -3.0310   45.9260 N.3   188  LEU188     -0.1245
    225  CA        46.8580   -4.1880   46.8120 C.3   188  LEU188      0.1561
    226  C         48.1810   -4.9420   46.7290 C.2   188  LEU188      0.2260
    227  O         48.7290   -5.1450   45.6320 O.2   188  LEU188     -0.2867
    228  CB        45.7020   -5.1440   46.4610 C.3   188  LEU188      0.0270
    229  CG        44.2560   -4.6560   46.2550 C.3   188  LEU188      0.0019
    230  CD1       43.3040   -5.8490   46.1800 C.3   188  LEU188      0.0001
    231  CD2       43.7840   -3.6800   47.3300 C.3   188  LEU188      0.0001
    232  N         41.7110  -12.4970   44.1840 N.3   195  PHE195     -0.1241
    233  CA        41.5090  -11.0900   43.8310 C.3   195  PHE195      0.1605
    234  C         41.8140  -10.8490   42.3460 C.2   195  PHE195      0.2264
    235  O         41.0250  -10.2260   41.6480 O.2   195  PHE195     -0.2867
    236  CB        42.3720  -10.1710   44.7020 C.3   195  PHE195      0.0534
    237  CG        41.7860   -9.8770   46.0560 C.ar  195  PHE195     -0.0203
    238  CD1       41.9330  -10.7730   47.1020 C.ar  195  PHE195     -0.0042
    239  CD2       41.0970   -8.6950   46.2870 C.ar  195  PHE195     -0.0042
    240  CE1       41.3920  -10.4970   48.3680 C.ar  195  PHE195     -0.0003
    241  CE2       40.5550   -8.4130   47.5490 C.ar  195  PHE195     -0.0003
    242  CZ        40.7100   -9.3200   48.5860 C.ar  195  PHE195     -0.0000
@<TRIPOS>BOND
     1   235   234    2
     2   212   211    2
     3   234   233    1
     4   211   210    1
     5   219   218    2
     6   216   217    1
     7   233   232    1
     8   233   236    1
     9   185   184    2
    10   209   210    1
    11   223   221    1
    12   210   213    1
    13   218   217    1
    14   236   237    1
    15   220   217    1
    16   220   221    1
    17   220   222    1
    18   213   214    1
    19   213   215    1
    20   184   183    1
    21   109   108    2
    22   227   226    2
    23   224   225    1
    24   186   183    1
    25   186   187    1
    26   237   239   ar
    27   237   238   ar
    28   204   203    2
    29   230   229    1
    30   229   228    1
    31   229   231    1
    32   239   241   ar
    33   183   182    1
    34   106   107    1
    35   203   202    1
    36   228   225    1
    37   108   107    1
    38   188   187    1
    39   226   225    1
    40   187   189    1
    41   238   240   ar
    42   107   110    1
    43   182   177   am
    44   241   242   ar
    45   202   201    1
    46   202   205    1
    47   193   192    2
    48   117   116    2
    49   114   115    1
    50   178   177    2
    51   111   113    1
    52   111   110    1
    53   177   176    1
    54   240   242   ar
    55   170   169    2
    56   110   112    1
    57   190   191    1
    58   192   191    1
    59   169   168    1
    60   205   206    1
    61   175   176    1
    62   116   115    1
    63   115   118    1
    64   176   179    1
    65   173   171    1
    66   191   194    1
    67   125   127   ar
    68   125   124   ar
    69   208   206    1
    70   127   129   ar
    71   171   168    1
    72   171   172    1
    73   206   207    1
    74   168   167    1
    75   122   121    2
    76   119   120    1
    77   194   195    1
    78   179   181    1
    79   179   180    1
    80   123   124    1
    81   123   120    1
    82   124   126   ar
    83   135   136    1
    84   135   134    1
    85   135   137    1
    86   129   128   ar
    87   120   121    1
    88   196   195   ar
    89   196   198   ar
    90   134   131    1
    91   172   174    1
    92   195   197   ar
    93    13    14    1
    94    16    15    2
    95   163   162    2
    96   158   156    1
    97   162   161    1
    98   146   144   ar
    99   146   147   ar
   100    19    18    1
   101   126   128   ar
   102   149   147   ar
   103   149   151   ar
   104   198   200   ar
   105   130   131    1
   106   144   143   ar
   107   147   145   ar
   108   155   154    2
   109   131   132    1
   110   197   199   ar
   111   151   150   ar
   112    15    14    1
   113    14    17    1
   114    17    18    1
   115   156   157    1
   116   156   153    1
   117   105   103    1
   118   143   145   ar
   119   143   142    1
   120   145   148   ar
   121    18    20    1
   122   101   100    2
   123   132   133    2
   124   160   161    1
   125   154   153    1
   126   161   164    1
   127   150   148   ar
   128    77    75   ar
   129    77    76   ar
   130   200   199   ar
   131    30    28   ar
   132    30    31   ar
   133   103   102    1
   134   157   159    1
   135   142   139    1
   136    28    26   ar
   137   100    99    1
   138    97    96    1
   139   153   152    1
   140    75    73   ar
   141   102    99    1
   142   102   104    1
   143    76    74   ar
   144   164   165    1
   145   164   166    1
   146    96    93    1
   147    24    23    2
   148    32    31    1
   149    95    94    2
   150    21    22    1
   151    31    29   ar
   152    40    38    1
   153   141   140    2
   154    99    98    1
   155    26    25    1
   156    26    27   ar
   157    93    94    1
   158    93    92    1
   159    25    22    1
   160   139   140    1
   161   139   138    1
   162    73    72   ar
   163    83    82    1
   164    38    37    1
   165    22    23    1
   166    74    72   ar
   167    82    79    1
   168    29    27   ar
   169    37    39    1
   170    37    34    1
   171    90    89    1
   172    72    71    1
   173    91    89    1
   174    81    80    2
   175    80    79    1
   176    80    84   am
   177    33    34    1
   178    79    78    1
   179    89    88    1
   180    12    11    1
   181    34    35    1
   182    85    84    1
   183    85    88    1
   184    85    86    1
   185    71    68    1
   186    87    86    2
   187    53    54   ar
   188    53    51   ar
   189    68    69    1
   190    68    67    1
   191    70    69    2
   192    11     9   ar
   193    11    10   ar
   194    59    56    1
   195    54    52   ar
   196     9     7   ar
   197    35    36    2
   198    51    48   ar
   199    65    64    1
   200    63    62    2
   201     4     3    2
   202    67    62   am
   203    58    57    2
   204    10     8   ar
   205    62    61    1
   206    56    57    1
   207    56    55    1
   208     7     6   ar
   209    52    50   ar
   210    64    61    1
   211    64    66    1
   212    48    50   ar
   213    48    46   ar
   214     3     2    1
   215     8     6   ar
   216    61    60    1
   217     6     5    1
   218    50    49   ar
   219    45    46    1
   220    45    42    1
   221    46    47   ar
   222     2     5    1
   223     2     1    1
   224    49    47   ar
   225    41    42    1
   226    44    43    2
   227    42    43    1
