@<TRIPOS>MOLECULE
tmp/1oizA02.pdb
 85 81 0 0 0
SMALL
GASTEIGER

@<TRIPOS>ATOM
      1  N         45.0760  -11.7660   55.5500 N.3   155  TRP155     -0.1241
      2  CA        43.6600  -11.6620   55.1910 C.3   155  TRP155      0.1605
      3  C         42.9960  -12.9910   55.4810 C.2   155  TRP155      0.2264
      4  O         43.3640  -14.0090   54.8880 O.2   155  TRP155     -0.2867
      5  CB        43.5300  -11.3300   53.7040 C.3   155  TRP155      0.0550
      6  CG        42.1290  -11.3650   53.1280 C.ar  155  TRP155      0.0003
      7  CD1       41.5350  -12.4130   52.4680 C.ar  155  TRP155      0.0946
      8  CD2       41.1610  -10.3060   53.1370 C.ar  155  TRP155      0.0152
      9  NE1       40.2640  -12.0680   52.0780 N.ar  155  TRP155     -0.2442
     10  CE2       40.0070  -10.7820   52.4740 C.ar  155  TRP155      0.0810
     11  CE3       41.1480   -8.9950   53.6450 C.ar  155  TRP155      0.0012
     12  CZ2       38.8570   -9.9980   52.3030 C.ar  155  TRP155      0.0191
     13  CZ3       40.0000   -8.2140   53.4690 C.ar  155  TRP155      0.0001
     14  CH2       38.8730   -8.7240   52.8040 C.ar  155  TRP155      0.0015
     15  N         36.7410  -11.1810   55.5950 N.3   160  ALA160     -0.1231
     16  CA        35.8580  -11.2210   54.4330 C.3   160  ALA160      0.1694
     17  C         34.3840  -11.2440   54.8460 C.2   160  ALA160      0.2592
     18  O         33.5570  -10.6000   54.1990 O.2   160  ALA160     -0.2718
     19  CB        36.1920  -12.4140   53.5410 C.3   160  ALA160      0.0304
     20  N         34.0890  -11.9500   55.9400 N.am  161  PHE161     -0.1976
     21  CA        32.7470  -12.0340   56.5280 C.3   161  PHE161      0.1639
     22  C         32.1260  -10.6680   56.8680 C.2   161  PHE161      0.2290
     23  O         30.9070  -10.5160   56.8500 O.2   161  PHE161     -0.2864
     24  CB        32.8000  -12.9240   57.7820 C.3   161  PHE161      0.0560
     25  CG        31.4670  -13.1570   58.4460 C.ar  161  PHE161     -0.0200
     26  CD1       30.6070  -14.1610   57.9900 C.ar  161  PHE161     -0.0042
     27  CD2       31.0880  -12.4080   59.5620 C.ar  161  PHE161     -0.0042
     28  CE1       29.3830  -14.3960   58.6180 C.ar  161  PHE161     -0.0003
     29  CE2       29.8570  -12.6380   60.1960 C.ar  161  PHE161     -0.0003
     30  CZ        29.0080  -13.6320   59.7260 C.ar  161  PHE161     -0.0000
     31  N         32.6790   -7.8470   55.1920 N.3   163  ILE163     -0.1245
     32  CA        32.3670   -7.0990   53.9790 C.3   163  ILE163      0.1561
     33  C         31.0670   -7.6220   53.3750 C.2   163  ILE163      0.2260
     34  O         31.0740   -8.4620   52.4780 O.2   163  ILE163     -0.2867
     35  CB        33.5520   -7.1340   52.9640 C.3   163  ILE163      0.0252
     36  CG1       34.9120   -7.0350   53.6840 C.3   163  ILE163      0.0019
     37  CG2       33.3870   -6.0330   51.8870 C.3   163  ILE163      0.0019
     38  CD1       35.1650   -5.7140   54.4160 C.3   163  ILE163      0.0001
     39  N         30.1690   -3.1260   51.1230 N.3   168  ALA168     -0.1245
     40  CA        30.7220   -2.9580   49.7550 C.3   168  ALA168      0.1562
     41  C         30.2190   -1.6780   49.0930 C.2   168  ALA168      0.2260
     42  O         30.9740   -0.9690   48.4290 O.2   168  ALA168     -0.2867
     43  CB        30.3750   -4.1610   48.8810 C.3   168  ALA168      0.0290
     44  N         31.9180    1.3150   50.6130 N.3   171  ILE171     -0.1245
     45  CA        33.3020    1.4180   50.1240 C.3   171  ILE171      0.1561
     46  C         33.3390    2.0370   48.7250 C.2   171  ILE171      0.2260
     47  O         34.1180    2.9650   48.4690 O.2   171  ILE171     -0.2867
     48  CB        33.9940    0.0310   50.1020 C.3   171  ILE171      0.0252
     49  CG1       34.2780   -0.4670   51.5290 C.3   171  ILE171      0.0019
     50  CG2       35.3010    0.0720   49.2930 C.3   171  ILE171      0.0019
     51  CD1       34.6040   -1.9680   51.5620 C.3   171  ILE171      0.0001
     52  N         42.7840  -15.0970   44.3780 N.3   194  ILE194     -0.1231
     53  CA        41.3810  -14.9190   43.9890 C.3   194  ILE194      0.1692
     54  C         41.0450  -13.4740   43.5690 C.2   194  ILE194      0.2592
     55  O         40.2060  -13.2610   42.6840 O.2   194  ILE194     -0.2718
     56  CB        40.4230  -15.4270   45.1010 C.3   194  ILE194      0.0266
     57  CG1       38.9780  -15.4920   44.5850 C.3   194  ILE194      0.0019
     58  CG2       40.5140  -14.5470   46.3400 C.3   194  ILE194      0.0020
     59  CD1       38.5130  -16.8820   44.2360 C.3   194  ILE194      0.0001
     60  N         41.7110  -12.4970   44.1840 N.am  195  PHE195     -0.1976
     61  CA        41.5090  -11.0900   43.8310 C.3   195  PHE195      0.1639
     62  C         41.8140  -10.8490   42.3460 C.2   195  PHE195      0.2290
     63  O         41.0250  -10.2260   41.6480 O.2   195  PHE195     -0.2864
     64  CB        42.3720  -10.1710   44.7020 C.3   195  PHE195      0.0560
     65  CG        41.7860   -9.8770   46.0560 C.ar  195  PHE195     -0.0200
     66  CD1       41.9330  -10.7730   47.1020 C.ar  195  PHE195     -0.0042
     67  CD2       41.0970   -8.6950   46.2870 C.ar  195  PHE195     -0.0042
     68  CE1       41.3920  -10.4970   48.3680 C.ar  195  PHE195     -0.0003
     69  CE2       40.5550   -8.4130   47.5490 C.ar  195  PHE195     -0.0003
     70  CZ        40.7100   -9.3200   48.5860 C.ar  195  PHE195     -0.0000
     71  N         39.1060  -12.5940   39.9510 N.3   198  VAL198     -0.1245
     72  CA        37.8670  -11.8200   39.9290 C.3   198  VAL198      0.1561
     73  C         38.0650  -10.5390   39.1130 C.2   198  VAL198      0.2260
     74  O         37.2700  -10.2520   38.2180 O.2   198  VAL198     -0.2867
     75  CB        37.3580  -11.4990   41.3550 C.3   198  VAL198      0.0252
     76  CG1       36.2400  -10.4520   41.3260 C.3   198  VAL198      0.0019
     77  CG2       36.8920  -12.7740   42.0590 C.3   198  VAL198      0.0019
     78  N         35.9290   -8.7520   36.0710 N.3   202  ILE202     -0.1245
     79  CA        35.0380   -7.6080   36.3060 C.3   202  ILE202      0.1561
     80  C         35.6060   -6.2800   35.8340 C.2   202  ILE202      0.2260
     81  O         34.8420   -5.3560   35.5240 O.2   202  ILE202     -0.2867
     82  CB        34.5640   -7.4990   37.8030 C.3   202  ILE202      0.0252
     83  CG1       35.7150   -7.1510   38.7500 C.3   202  ILE202      0.0019
     84  CG2       33.8420   -8.7610   38.2490 C.3   202  ILE202      0.0019
     85  CD1       35.2570   -6.8230   40.1980 C.3   202  ILE202      0.0001
@<TRIPOS>BOND
     1    81    80    2
     2    80    79    1
     3    78    79    1
     4    79    82    1
     5    82    84    1
     6    82    83    1
     7    74    73    2
     8    83    85    1
     9    73    72    1
    10    72    71    1
    11    72    75    1
    12    76    75    1
    13    75    77    1
    14    63    62    2
    15    62    61    1
    16    55    54    2
    17    54    53    1
    18    54    60   am
    19    61    60    1
    20    61    64    1
    21    53    52    1
    22    53    56    1
    23    59    57    1
    24    57    56    1
    25    64    65    1
    26    56    58    1
    27    65    67   ar
    28    65    66   ar
    29    67    69   ar
    30    66    68   ar
    31    69    70   ar
    32    68    70   ar
    33    42    41    2
    34    47    46    2
    35    46    45    1
    36    43    40    1
    37    41    40    1
    38    50    48    1
    39    40    39    1
    40    48    45    1
    41    48    49    1
    42    45    44    1
    43    49    51    1
    44    37    35    1
    45     9     7   ar
    46     9    10   ar
    47    12    10   ar
    48    12    14   ar
    49     7     6   ar
    50    10     8   ar
    51    34    33    2
    52    14    13   ar
    53    35    36    1
    54    35    32    1
    55     6     8   ar
    56     6     5    1
    57     8    11   ar
    58    33    32    1
    59    13    11   ar
    60    19    16    1
    61    36    38    1
    62     5     2    1
    63    32    31    1
    64    18    17    2
    65    16    17    1
    66    16    15    1
    67    17    20   am
    68     4     3    2
    69     2     3    1
    70     2     1    1
    71    20    21    1
    72    21    22    1
    73    21    24    1
    74    23    22    2
    75    24    25    1
    76    26    25   ar
    77    26    28   ar
    78    25    27   ar
    79    28    30   ar
    80    27    29   ar
    81    30    29   ar
