@<TRIPOS>MOLECULE
tmp/1oizA00.pdb
 166 158 0 0 0
SMALL
GASTEIGER

@<TRIPOS>ATOM
      1  N         46.8990   -1.2120   50.3360 N.3   150  PHE150     -0.1241
      2  CA        46.3270   -2.1790   51.2570 C.3   150  PHE150      0.1605
      3  C         47.2160   -3.4050   51.2790 C.2   150  PHE150      0.2264
      4  O         47.3450   -4.1100   50.2710 O.2   150  PHE150     -0.2867
      5  CB        44.9000   -2.5520   50.8380 C.3   150  PHE150      0.0534
      6  CG        43.9050   -1.4230   50.9690 C.ar  150  PHE150     -0.0203
      7  CD1       43.7480   -0.4940   49.9420 C.ar  150  PHE150     -0.0042
      8  CD2       43.1280   -1.2940   52.1230 C.ar  150  PHE150     -0.0042
      9  CE1       42.8160    0.5470   50.0510 C.ar  150  PHE150     -0.0003
     10  CE2       42.1910   -0.2550   52.2410 C.ar  150  PHE150     -0.0003
     11  CZ        42.0420    0.6680   51.2020 C.ar  150  PHE150     -0.0000
     12  N         45.0760  -11.7660   55.5500 N.3   155  TRP155     -0.1227
     13  CA        43.6600  -11.6620   55.1910 C.3   155  TRP155      0.1737
     14  C         42.9960  -12.9910   55.4810 C.2   155  TRP155      0.2595
     15  O         43.3640  -14.0090   54.8880 O.2   155  TRP155     -0.2718
     16  CB        43.5300  -11.3300   53.7040 C.3   155  TRP155      0.0564
     17  CG        42.1290  -11.3650   53.1280 C.ar  155  TRP155      0.0003
     18  CD1       41.5350  -12.4130   52.4680 C.ar  155  TRP155      0.0946
     19  CD2       41.1610  -10.3060   53.1370 C.ar  155  TRP155      0.0152
     20  NE1       40.2640  -12.0680   52.0780 N.ar  155  TRP155     -0.2442
     21  CE2       40.0070  -10.7820   52.4740 C.ar  155  TRP155      0.0810
     22  CE3       41.1480   -8.9950   53.6450 C.ar  155  TRP155      0.0012
     23  CZ2       38.8570   -9.9980   52.3030 C.ar  155  TRP155      0.0191
     24  CZ3       40.0000   -8.2140   53.4690 C.ar  155  TRP155      0.0001
     25  CH2       38.8730   -8.7240   52.8040 C.ar  155  TRP155      0.0015
     26  N         42.0390  -12.9840   56.4040 N.am  156  GLN156     -0.1965
     27  CA        41.3250  -14.2040   56.7750 C.3   156  GLN156      0.1733
     28  C         39.8110  -14.1110   56.5320 C.2   156  GLN156      0.2616
     29  O         39.2830  -13.0410   56.2040 O.2   156  GLN156     -0.2715
     30  CB        41.6490  -14.6100   58.2150 C.3   156  GLN156      0.0408
     31  CG        41.0760  -13.7200   59.3010 C.3   156  GLN156      0.0908
     32  CD        41.7680  -13.9190   60.6420 C.2   156  GLN156      0.2608
     33  OE1       42.9270  -13.5280   60.8080 O.2   156  GLN156     -0.2717
     34  NE2       41.0590  -14.5190   61.6070 N.am  156  GLN156     -0.0878
     35  N         39.1250  -15.2420   56.6850 N.am  157  PHE157     -0.1974
     36  CA        37.7020  -15.3310   56.3750 C.3   157  PHE157      0.1639
     37  C         36.8720  -14.4260   57.2670 C.2   157  PHE157      0.2290
     38  O         35.8710  -13.8670   56.8240 O.2   157  PHE157     -0.2864
     39  CB        37.2250  -16.7840   56.4630 C.3   157  PHE157      0.0560
     40  CG        37.7190  -17.6330   55.3310 C.ar  157  PHE157     -0.0200
     41  CD1       37.0840  -17.5950   54.0910 C.ar  157  PHE157     -0.0042
     42  CD2       38.8450  -18.4380   55.4880 C.ar  157  PHE157     -0.0042
     43  CE1       37.5450  -18.3650   53.0300 C.ar  157  PHE157     -0.0003
     44  CE2       39.3170  -19.2120   54.4280 C.ar  157  PHE157     -0.0003
     45  CZ        38.6630  -19.1700   53.1940 C.ar  157  PHE157     -0.0000
     46  N         36.7410  -11.1810   55.5950 N.3   160  ALA160     -0.1245
     47  CA        35.8580  -11.2210   54.4330 C.3   160  ALA160      0.1562
     48  C         34.3840  -11.2440   54.8460 C.2   160  ALA160      0.2260
     49  O         33.5570  -10.6000   54.1990 O.2   160  ALA160     -0.2867
     50  CB        36.1920  -12.4140   53.5410 C.3   160  ALA160      0.0290
     51  N         31.9180    1.3150   50.6130 N.3   171  ILE171     -0.1245
     52  CA        33.3020    1.4180   50.1240 C.3   171  ILE171      0.1561
     53  C         33.3390    2.0370   48.7250 C.2   171  ILE171      0.2260
     54  O         34.1180    2.9650   48.4690 O.2   171  ILE171     -0.2867
     55  CB        33.9940    0.0310   50.1020 C.3   171  ILE171      0.0252
     56  CG1       34.2780   -0.4670   51.5290 C.3   171  ILE171      0.0019
     57  CG2       35.3010    0.0720   49.2930 C.3   171  ILE171      0.0019
     58  CD1       34.6040   -1.9680   51.5620 C.3   171  ILE171      0.0001
     59  N         35.1320    5.7770   47.3940 N.3   175  LEU175     -0.1245
     60  CA        36.1230    5.7230   46.3060 C.3   175  LEU175      0.1561
     61  C         35.7120    6.4890   45.0540 C.2   175  LEU175      0.2260
     62  O         36.5690    6.8050   44.2080 O.2   175  LEU175     -0.2867
     63  CB        36.4540    4.2700   45.9420 C.3   175  LEU175      0.0270
     64  CG        37.0490    3.3860   47.0430 C.3   175  LEU175      0.0019
     65  CD1       37.1550    1.9320   46.5610 C.3   175  LEU175      0.0001
     66  CD2       38.4130    3.8840   47.5350 C.3   175  LEU175      0.0001
     67  N         44.6940    2.7580   43.7750 N.3   186  ILE186     -0.1245
     68  CA        44.4530    1.8000   44.8500 C.3   186  ILE186      0.1561
     69  C         45.3870    0.6290   44.5980 C.2   186  ILE186      0.2260
     70  O         45.3220   -0.0020   43.5400 O.2   186  ILE186     -0.2867
     71  CB        42.9810    1.2920   44.8290 C.3   186  ILE186      0.0252
     72  CG1       41.9930    2.4550   45.0360 C.3   186  ILE186      0.0019
     73  CG2       42.7760    0.1980   45.8840 C.3   186  ILE186      0.0019
     74  CD1       40.6240    2.2170   44.3660 C.3   186  ILE186      0.0001
     75  N         46.9000   -3.0310   45.9260 N.3   188  LEU188     -0.1245
     76  CA        46.8580   -4.1880   46.8120 C.3   188  LEU188      0.1561
     77  C         48.1810   -4.9420   46.7290 C.2   188  LEU188      0.2260
     78  O         48.7290   -5.1450   45.6320 O.2   188  LEU188     -0.2867
     79  CB        45.7020   -5.1440   46.4610 C.3   188  LEU188      0.0270
     80  CG        44.2560   -4.6560   46.2550 C.3   188  LEU188      0.0019
     81  CD1       43.3040   -5.8490   46.1800 C.3   188  LEU188      0.0001
     82  CD2       43.7840   -3.6800   47.3300 C.3   188  LEU188      0.0001
     83  N         45.3830  -12.4760   48.2070 N.3   192  PRO192     -0.2116
     84  CA        45.1810  -13.8410   47.6980 C.3   192  PRO192      0.1372
     85  C         44.9270  -13.8560   46.2000 C.2   192  PRO192      0.2244
     86  O         44.3860  -12.8820   45.6740 O.2   192  PRO192     -0.2868
     87  CB        43.9300  -14.3380   48.4360 C.3   192  PRO192      0.0268
     88  CG        43.4110  -13.2200   49.2270 C.3   192  PRO192      0.0207
     89  CD        44.4130  -12.1190   49.2580 C.3   192  PRO192      0.0892
     90  N         42.7840  -15.0970   44.3780 N.3   194  ILE194     -0.1231
     91  CA        41.3810  -14.9190   43.9890 C.3   194  ILE194      0.1692
     92  C         41.0450  -13.4740   43.5690 C.2   194  ILE194      0.2592
     93  O         40.2060  -13.2610   42.6840 O.2   194  ILE194     -0.2718
     94  CB        40.4230  -15.4270   45.1010 C.3   194  ILE194      0.0266
     95  CG1       38.9780  -15.4920   44.5850 C.3   194  ILE194      0.0019
     96  CG2       40.5140  -14.5470   46.3400 C.3   194  ILE194      0.0020
     97  CD1       38.5130  -16.8820   44.2360 C.3   194  ILE194      0.0001
     98  N         41.7110  -12.4970   44.1840 N.am  195  PHE195     -0.1976
     99  CA        41.5090  -11.0900   43.8310 C.3   195  PHE195      0.1639
    100  C         41.8140  -10.8490   42.3460 C.2   195  PHE195      0.2290
    101  O         41.0250  -10.2260   41.6480 O.2   195  PHE195     -0.2864
    102  CB        42.3720  -10.1710   44.7020 C.3   195  PHE195      0.0560
    103  CG        41.7860   -9.8770   46.0560 C.ar  195  PHE195     -0.0200
    104  CD1       41.9330  -10.7730   47.1020 C.ar  195  PHE195     -0.0042
    105  CD2       41.0970   -8.6950   46.2870 C.ar  195  PHE195     -0.0042
    106  CE1       41.3920  -10.4970   48.3680 C.ar  195  PHE195     -0.0003
    107  CE2       40.5550   -8.4130   47.5490 C.ar  195  PHE195     -0.0003
    108  CZ        40.7100   -9.3200   48.5860 C.ar  195  PHE195     -0.0000
    109  N         39.1060  -12.5940   39.9510 N.3   198  VAL198     -0.1231
    110  CA        37.8670  -11.8200   39.9290 C.3   198  VAL198      0.1692
    111  C         38.0650  -10.5390   39.1130 C.2   198  VAL198      0.2592
    112  O         37.2700  -10.2520   38.2180 O.2   198  VAL198     -0.2718
    113  CB        37.3580  -11.4990   41.3550 C.3   198  VAL198      0.0266
    114  CG1       36.2400  -10.4520   41.3260 C.3   198  VAL198      0.0020
    115  CG2       36.8920  -12.7740   42.0590 C.3   198  VAL198      0.0020
    116  N         39.1410   -9.8060   39.4130 N.am  199  PHE199     -0.1976
    117  CA        39.4580   -8.5340   38.7540 C.3   199  PHE199      0.1639
    118  C         39.5930   -8.6880   37.2380 C.2   199  PHE199      0.2290
    119  O         39.1300   -7.8340   36.4840 O.2   199  PHE199     -0.2864
    120  CB        40.7360   -7.9210   39.3620 C.3   199  PHE199      0.0560
    121  CG        41.0450   -6.5270   38.8900 C.ar  199  PHE199     -0.0200
    122  CD1       40.1290   -5.4880   39.0630 C.ar  199  PHE199     -0.0042
    123  CD2       42.2660   -6.2470   38.2730 C.ar  199  PHE199     -0.0042
    124  CE1       40.4220   -4.1900   38.6290 C.ar  199  PHE199     -0.0003
    125  CE2       42.5690   -4.9490   37.8250 C.ar  199  PHE199     -0.0003
    126  CZ        41.6390   -3.9220   38.0060 C.ar  199  PHE199     -0.0000
    127  N         35.9290   -8.7520   36.0710 N.3   202  ILE202     -0.1245
    128  CA        35.0380   -7.6080   36.3060 C.3   202  ILE202      0.1561
    129  C         35.6060   -6.2800   35.8340 C.2   202  ILE202      0.2260
    130  O         34.8420   -5.3560   35.5240 O.2   202  ILE202     -0.2867
    131  CB        34.5640   -7.4990   37.8030 C.3   202  ILE202      0.0252
    132  CG1       35.7150   -7.1510   38.7500 C.3   202  ILE202      0.0019
    133  CG2       33.8420   -8.7610   38.2490 C.3   202  ILE202      0.0019
    134  CD1       35.2570   -6.8230   40.1980 C.3   202  ILE202      0.0001
    135  N         33.8630   -1.9460   35.2830 N.3   206  LEU206     -0.1245
    136  CA        33.9910   -1.0260   36.4310 C.3   206  LEU206      0.1561
    137  C         33.8230    0.4240   36.0260 C.2   206  LEU206      0.2260
    138  O         34.0980    0.7970   34.8830 O.2   206  LEU206     -0.2867
    139  CB        35.3500   -1.1950   37.1160 C.3   206  LEU206      0.0270
    140  CG        35.7120   -2.5560   37.7210 C.3   206  LEU206      0.0019
    141  CD1       37.1160   -2.4970   38.3450 C.3   206  LEU206      0.0001
    142  CD2       34.6830   -3.0250   38.7540 C.3   206  LEU206      0.0001
    143  N         37.5940    4.2130   38.8700 N.3   210  ILE210     -0.1245
    144  CA        38.5390    3.2830   39.4930 C.3   210  ILE210      0.1561
    145  C         39.1630    2.2910   38.5080 C.2   210  ILE210      0.2260
    146  O         40.2210    1.7360   38.7860 O.2   210  ILE210     -0.2867
    147  CB        37.8550    2.4810   40.6430 C.3   210  ILE210      0.0252
    148  CG1       36.7280    1.5890   40.0810 C.3   210  ILE210      0.0019
    149  CG2       37.3760    3.4360   41.7650 C.3   210  ILE210      0.0019
    150  CD1       36.1340    0.5910   41.0750 C.3   210  ILE210      0.0001
    151  N         43.4160    0.6520   39.6810 N.3   214  ILE214     -0.1245
    152  CA        43.5630   -0.4680   40.6070 C.3   214  ILE214      0.1561
    153  C         44.7390   -1.3200   40.1490 C.2   214  ILE214      0.2260
    154  O         44.7660   -1.7820   39.0020 O.2   214  ILE214     -0.2867
    155  CB        42.2830   -1.3230   40.6160 C.3   214  ILE214      0.0252
    156  CG1       41.0990   -0.4780   41.1000 C.3   214  ILE214      0.0019
    157  CG2       42.4740   -2.6050   41.4700 C.3   214  ILE214      0.0019
    158  CD1       39.7230   -1.0200   40.6960 C.3   214  ILE214      0.0001
    159  N         47.0160   -4.6070   41.4190 N.3   216  MET216     -0.1245
    160  CA        47.1300   -5.7010   42.3590 C.3   216  MET216      0.1570
    161  C         48.4740   -6.3530   42.1460 C.2   216  MET216      0.2261
    162  O         48.7140   -6.9700   41.1160 O.2   216  MET216     -0.2867
    163  CB        45.9950   -6.7000   42.1720 C.3   216  MET216      0.0387
    164  CG        44.6210   -6.1130   42.4510 C.3   216  MET216      0.0595
    165  SD        43.3720   -7.3620   42.2380 S.3   216  MET216     -0.1393
    166  CE        41.8670   -6.3540   42.5080 C.3   216  MET216      0.0692
@<TRIPOS>BOND
     1   138   137    2
     2   135   136    1
     3   130   129    2
     4   129   128    1
     5   137   136    1
     6   127   128    1
     7   128   131    1
     8   136   139    1
     9   119   118    2
    10   139   140    1
    11   118   117    1
    12   140   141    1
    13   140   142    1
    14   131   133    1
    15   131   132    1
    16   125   126   ar
    17   125   123   ar
    18   126   124   ar
    19   112   111    2
    20   123   121   ar
    21   145   146    2
    22   145   144    1
    23   124   122   ar
    24   132   134    1
    25   117   120    1
    26   117   116    1
    27   143   144    1
    28   121   122   ar
    29   121   120    1
    30   154   153    2
    31   111   116   am
    32   111   110    1
    33   144   147    1
    34   151   152    1
    35   110   109    1
    36   110   113    1
    37   148   147    1
    38   148   150    1
    39   153   152    1
    40   152   155    1
    41   155   156    1
    42   155   157    1
    43   147   149    1
    44   158   156    1
    45   162   161    2
    46   114   113    1
    47   113   115    1
    48   159   160    1
    49   101   100    2
    50   161   160    1
    51   163   160    1
    52   163   164    1
    53   165   164    1
    54   165   166    1
    55   100    99    1
    56    93    92    2
    57    70    69    2
    58    92    91    1
    59    92    98   am
    60    67    68    1
    61    99    98    1
    62    99   102    1
    63    91    90    1
    64    91    94    1
    65    62    61    2
    66    97    95    1
    67    74    72    1
    68    95    94    1
    69    69    68    1
    70   102   103    1
    71    71    68    1
    72    71    72    1
    73    71    73    1
    74    61    60    1
    75    94    96    1
    76    78    77    2
    77    86    85    2
    78    75    76    1
    79    63    60    1
    80    63    64    1
    81   103   105   ar
    82   103   104   ar
    83    81    80    1
    84    85    84    1
    85    80    79    1
    86    80    82    1
    87   105   107   ar
    88    60    59    1
    89    79    76    1
    90    65    64    1
    91    77    76    1
    92    64    66    1
    93   104   106   ar
    94   107   108   ar
    95    84    83    1
    96    84    87    1
    97    83    89    1
    98   106   108   ar
    99    87    88    1
   100    54    53    2
   101    53    52    1
   102    88    89    1
   103    57    55    1
   104     7     9   ar
   105     7     6   ar
   106     9    11   ar
   107    55    52    1
   108    55    56    1
   109    52    51    1
   110     4     3    2
   111     1     2    1
   112     5     6    1
   113     5     2    1
   114     6     8   ar
   115    11    10   ar
   116     2     3    1
   117    56    58    1
   118    20    18   ar
   119    20    21   ar
   120     8    10   ar
   121    23    21   ar
   122    23    25   ar
   123    18    17   ar
   124    21    19   ar
   125    25    24   ar
   126    43    45   ar
   127    43    41   ar
   128    17    19   ar
   129    17    16    1
   130    19    22   ar
   131    45    44   ar
   132    24    22   ar
   133    50    47    1
   134    16    13    1
   135    41    40   ar
   136    49    48    2
   137    44    42   ar
   138    47    48    1
   139    47    46    1
   140    15    14    2
   141    13    14    1
   142    13    12    1
   143    40    42   ar
   144    40    39    1
   145    14    26   am
   146    29    28    2
   147    36    39    1
   148    36    35    1
   149    36    37    1
   150    26    27    1
   151    28    35   am
   152    28    27    1
   153    27    30    1
   154    38    37    2
   155    30    31    1
   156    31    32    1
   157    32    33    2
   158    32    34   am
