@<TRIPOS>MOLECULE
tmp/1oizB02.pdb
 120 111 0 0 0
SMALL
GASTEIGER

@<TRIPOS>ATOM
      1  N         19.5820  -19.4890   26.6330 N.3   109  ILE109     -0.1245
      2  CA        20.8440  -20.2280   26.7630 C.3   109  ILE109      0.1561
      3  C         20.6570  -21.7360   26.5680 C.2   109  ILE109      0.2260
      4  O         21.5610  -22.4100   26.0730 O.2   109  ILE109     -0.2867
      5  CB        21.5370  -19.9190   28.1130 C.3   109  ILE109      0.0252
      6  CG1       21.9170  -18.4420   28.1970 C.3   109  ILE109      0.0019
      7  CG2       22.8330  -20.6970   28.2470 C.3   109  ILE109      0.0019
      8  CD1       22.9190  -17.9700   27.1170 C.3   109  ILE109      0.0001
      9  N         17.8280  -12.3620   29.0460 N.3   148  PHE148     -0.1241
     10  CA        18.5660  -13.6160   28.9610 C.3   148  PHE148      0.1605
     11  C         17.9040  -14.6280   29.8580 C.2   148  PHE148      0.2264
     12  O         17.9000  -14.4810   31.0780 O.2   148  PHE148     -0.2867
     13  CB        20.0380  -13.4450   29.3490 C.3   148  PHE148      0.0534
     14  CG        20.8230  -12.6260   28.3700 C.ar  148  PHE148     -0.0203
     15  CD1       20.8020  -11.2280   28.4420 C.ar  148  PHE148     -0.0042
     16  CD2       21.5670  -13.2400   27.3740 C.ar  148  PHE148     -0.0042
     17  CE1       21.5150  -10.4640   27.5350 C.ar  148  PHE148     -0.0003
     18  CE2       22.2840  -12.4750   26.4560 C.ar  148  PHE148     -0.0003
     19  CZ        22.2540  -11.0880   26.5370 C.ar  148  PHE148     -0.0000
     20  N         18.2690  -17.9400   31.3750 N.3   150  LEU150     -0.1245
     21  CA        19.3810  -18.8170   31.7100 C.3   150  LEU150      0.1561
     22  C         18.9920  -20.2040   32.1560 C.2   150  LEU150      0.2260
     23  O         19.8390  -20.9300   32.6720 O.2   150  LEU150     -0.2867
     24  CB        20.2700  -18.1730   32.7770 C.3   150  LEU150      0.0270
     25  CG        21.0870  -16.9210   32.4710 C.3   150  LEU150      0.0019
     26  CD1       22.4510  -17.1180   33.1300 C.3   150  LEU150      0.0001
     27  CD2       21.2270  -16.5670   30.9880 C.3   150  LEU150      0.0001
     28  N         21.4610  -23.3320   31.8670 N.3   153  TRP153     -0.1241
     29  CA        22.8510  -22.8660   31.9780 C.3   153  TRP153      0.1605
     30  C         23.7040  -24.0540   32.4170 C.2   153  TRP153      0.2264
     31  O         23.3550  -24.7700   33.3730 O.2   153  TRP153     -0.2867
     32  CB        22.9230  -21.7080   32.9830 C.3   153  TRP153      0.0550
     33  CG        24.2850  -21.0840   33.2890 C.ar  153  TRP153      0.0003
     34  CD1       25.0500  -21.2910   34.4100 C.ar  153  TRP153      0.0946
     35  CD2       24.9940  -20.1130   32.5040 C.ar  153  TRP153      0.0152
     36  NE1       26.1940  -20.5310   34.3560 N.ar  153  TRP153     -0.2442
     37  CE2       26.1870  -19.7970   33.1990 C.ar  153  TRP153      0.0810
     38  CE3       24.7510  -19.4830   31.2750 C.ar  153  TRP153      0.0012
     39  CZ2       27.1270  -18.8850   32.7080 C.ar  153  TRP153      0.0191
     40  CZ3       25.6980  -18.5760   30.7840 C.ar  153  TRP153      0.0001
     41  CH2       26.8700  -18.2900   31.5040 C.ar  153  TRP153      0.0015
     42  N         33.2300  -18.3360   29.1120 N.3   161  ILE161     -0.1245
     43  CA        33.2480  -16.8990   29.3970 C.3   161  ILE161      0.1561
     44  C         34.5390  -16.5220   30.1030 C.2   161  ILE161      0.2260
     45  O         34.6330  -16.5280   31.3450 O.2   161  ILE161     -0.2867
     46  CB        31.9700  -16.4610   30.1850 C.3   161  ILE161      0.0252
     47  CG1       30.7020  -17.0220   29.5180 C.3   161  ILE161      0.0019
     48  CG2       31.8840  -14.9280   30.3140 C.3   161  ILE161      0.0019
     49  CD1       30.5300  -16.6700   28.0190 C.3   161  ILE161      0.0001
     50  N         34.8240  -11.4570   28.3120 N.3   166  ALA166     -0.1245
     51  CA        34.2690  -10.4450   29.2120 C.3   166  ALA166      0.1562
     52  C         34.5910   -9.0080   28.7520 C.2   166  ALA166      0.2260
     53  O         33.7170   -8.1510   28.7100 O.2   166  ALA166     -0.2867
     54  CB        34.7880  -10.6820   30.6360 C.3   166  ALA166      0.0290
     55  N         32.3960   -8.2760   25.6820 N.3   169  ILE169     -0.1245
     56  CA        31.0200   -8.0190   26.1460 C.3   169  ILE169      0.1561
     57  C         30.8790   -6.6150   26.7440 C.2   169  ILE169      0.2260
     58  O         29.9800   -5.8560   26.3500 O.2   169  ILE169     -0.2867
     59  CB        30.5730   -9.0800   27.1880 C.3   169  ILE169      0.0252
     60  CG1       30.3480  -10.4430   26.5120 C.3   169  ILE169      0.0019
     61  CG2       29.3080   -8.6260   27.9480 C.3   169  ILE169      0.0019
     62  CD1       30.1330  -11.6080   27.4960 C.3   169  ILE169      0.0001
     63  N         28.5550   -3.1770   25.4830 N.3   173  LEU173     -0.1245
     64  CA        27.5750   -2.6530   26.4290 C.3   173  LEU173      0.1561
     65  C         27.8720   -1.2300   26.8710 C.2   173  LEU173      0.2260
     66  O         27.0420   -0.6110   27.5570 O.2   173  LEU173     -0.2867
     67  CB        27.4840   -3.5490   27.6780 C.3   173  LEU173      0.0270
     68  CG        27.0530   -5.0000   27.4930 C.3   173  LEU173      0.0019
     69  CD1       26.9260   -5.7060   28.8580 C.3   173  LEU173      0.0001
     70  CD2       25.7430   -5.0510   26.7320 C.3   173  LEU173      0.0001
     71  N         19.0860   -4.7860   30.9340 N.3   184  ILE184     -0.1245
     72  CA        19.5270   -6.1660   30.6940 C.3   184  ILE184      0.1561
     73  C         18.8090   -6.9490   31.7760 C.2   184  ILE184      0.2260
     74  O         18.9640   -6.6510   32.9480 O.2   184  ILE184     -0.2867
     75  CB        21.0650   -6.3260   30.8720 C.3   184  ILE184      0.0252
     76  CG1       21.8380   -5.5700   29.7700 C.3   184  ILE184      0.0019
     77  CG2       21.4680   -7.8120   30.8610 C.3   184  ILE184      0.0019
     78  CD1       23.2420   -5.1320   30.1860 C.3   184  ILE184      0.0001
     79  N         17.9140  -10.6910   33.4770 N.3   186  LEU186     -0.1245
     80  CA        18.1860  -12.1150   33.6180 C.3   186  LEU186      0.1561
     81  C         16.9810  -12.7970   34.2660 C.2   186  LEU186      0.2260
     82  O         16.4380  -12.2980   35.2510 O.2   186  LEU186     -0.2867
     83  CB        19.4050  -12.3530   34.5080 C.3   186  LEU186      0.0270
     84  CG        20.7640  -11.7660   34.1200 C.3   186  LEU186      0.0019
     85  CD1       21.8420  -12.5810   34.8400 C.3   186  LEU186      0.0001
     86  CD2       20.9890  -11.7530   32.6300 C.3   186  LEU186      0.0001
     87  N         24.0880  -17.8170   42.2630 N.3   192  ILE192     -0.1231
     88  CA        25.4440  -17.2400   42.3330 C.3   192  ILE192      0.1692
     89  C         25.5700  -15.9030   41.5700 C.2   192  ILE192      0.2592
     90  O         26.4240  -15.0660   41.8950 O.2   192  ILE192     -0.2718
     91  CB        26.5260  -18.2580   41.8490 C.3   192  ILE192      0.0266
     92  CG1       27.9420  -17.7100   42.1090 C.3   192  ILE192      0.0019
     93  CG2       26.3820  -18.5640   40.3530 C.3   192  ILE192      0.0020
     94  CD1       28.6010  -18.2570   43.3690 C.3   192  ILE192      0.0001
     95  N         24.7320  -15.7190   40.5510 N.am  193  PHE193     -0.1976
     96  CA        24.6210  -14.4390   39.8640 C.3   193  PHE193      0.1639
     97  C         24.1970  -13.3390   40.8440 C.2   193  PHE193      0.2290
     98  O         24.7290  -12.2290   40.8090 O.2   193  PHE193     -0.2864
     99  CB        23.6110  -14.5360   38.7340 C.3   193  PHE193      0.0560
    100  CG        24.1900  -15.0500   37.4450 C.ar  193  PHE193     -0.0200
    101  CD1       24.4710  -16.4030   37.2820 C.ar  193  PHE193     -0.0042
    102  CD2       24.4670  -14.1880   36.4130 C.ar  193  PHE193     -0.0042
    103  CE1       25.0100  -16.8780   36.0810 C.ar  193  PHE193     -0.0003
    104  CE2       25.0050  -14.6520   35.2180 C.ar  193  PHE193     -0.0003
    105  CZ        25.2760  -16.0030   35.0600 C.ar  193  PHE193     -0.0000
    106  N         27.1230  -12.5980   43.4680 N.3   196  VAL196     -0.1245
    107  CA        28.1720  -11.8260   42.8010 C.3   196  VAL196      0.1561
    108  C         27.7200  -10.3820   42.5690 C.2   196  VAL196      0.2260
    109  O         28.3990   -9.4450   42.9790 O.2   196  VAL196     -0.2867
    110  CB        28.5810  -12.4720   41.4510 C.3   196  VAL196      0.0252
    111  CG1       29.4140  -11.5100   40.5810 C.3   196  VAL196      0.0019
    112  CG2       29.3320  -13.7810   41.6900 C.3   196  VAL196      0.0019
    113  N         29.3460   -6.6880   43.5960 N.3   200  ILE200     -0.1245
    114  CA        30.0210   -5.8670   42.5730 C.3   200  ILE200      0.1561
    115  C         29.2330   -4.6730   42.0500 C.2   200  ILE200      0.2260
    116  O         29.8430   -3.7310   41.5120 O.2   200  ILE200     -0.2867
    117  CB        30.5710   -6.6970   41.3830 C.3   200  ILE200      0.0252
    118  CG1       29.4280   -7.2940   40.5640 C.3   200  ILE200      0.0019
    119  CG2       31.5780   -7.7540   41.8840 C.3   200  ILE200      0.0019
    120  CD1       29.7670   -7.5350   39.0910 C.3   200  ILE200      0.0001
@<TRIPOS>BOND
     1    63    64    1
     2    55    56    1
     3     4     3    2
     4    56    57    1
     5    56    59    1
     6    58    57    2
     7    64    65    1
     8    64    67    1
     9    18    19   ar
    10    18    16   ar
    11    60    59    1
    12    60    62    1
    13    19    17   ar
    14     3     2    1
    15     1     2    1
    16    70    68    1
    17     2     5    1
    18    65    66    2
    19     8     6    1
    20    59    61    1
    21    16    14   ar
    22    68    67    1
    23    68    69    1
    24    17    15   ar
    25    49    47    1
    26     5     6    1
    27     5     7    1
    28    50    51    1
    29    14    15   ar
    30    14    13    1
    31    53    52    2
    32    52    51    1
    33    10     9    1
    34    10    13    1
    35    10    11    1
    36    42    43    1
    37    51    54    1
    38    43    44    1
    39    43    46    1
    40    47    46    1
    41    76    78    1
    42    76    75    1
    43    11    12    2
    44    44    45    2
    45    46    48    1
    46    72    75    1
    47    72    71    1
    48    72    73    1
    49    40    38   ar
    50    40    41   ar
    51    77    75    1
    52    27    25    1
    53    38    35   ar
    54    20    21    1
    55    41    39   ar
    56    21    22    1
    57    21    24    1
    58    73    74    2
    59    28    29    1
    60    29    30    1
    61    29    32    1
    62    22    23    2
    63    30    31    2
    64    25    24    1
    65    25    26    1
    66    35    37   ar
    67    35    33   ar
    68    86    84    1
    69    39    37   ar
    70    32    33    1
    71    37    36   ar
    72    33    34   ar
    73    79    80    1
    74    80    81    1
    75    80    83    1
    76    84    83    1
    77    84    85    1
    78    81    82    2
    79    36    34   ar
    80   105   104   ar
    81   105   103   ar
    82   104   102   ar
    83   103   101   ar
    84   102   100   ar
    85   101   100   ar
    86   100    99    1
    87    99    96    1
    88   120   118    1
    89    96    95    1
    90    96    97    1
    91    93    91    1
    92    95    89   am
    93   118   117    1
    94   111   110    1
    95    98    97    2
    96   117   119    1
    97   117   114    1
    98   110   112    1
    99   110   107    1
   100   116   115    2
   101    89    90    2
   102    89    88    1
   103    91    92    1
   104    91    88    1
   105   115   114    1
   106    92    94    1
   107    87    88    1
   108   108   107    1
   109   108   109    2
   110   114   113    1
   111   107   106    1
