@<TRIPOS>MOLECULE
tmp/1oj1A00.pdb
 101 96 0 0 0
SMALL
GASTEIGER

@<TRIPOS>ATOM
      1  N         17.8960   43.9710   -0.3770 N.3     9  HIS9       -0.1241
      2  CA        17.1800   44.1350    0.8750 C.3     9  HIS9        0.1621
      3  C         18.0120   44.3150    2.1360 C.2     9  HIS9        0.2264
      4  O         17.4610   44.5860    3.2010 O.2     9  HIS9       -0.2867
      5  CB        16.1870   42.9890    1.0550 C.3     9  HIS9        0.0745
      6  CG        15.0790   43.0010    0.0490 C.ar    9  HIS9        0.0817
      7  ND1       14.1410   44.0080   -0.0060 N.ar    9  HIS9       -0.2268
      8  CD2       14.7810   42.1540   -0.9660 C.ar    9  HIS9        0.1154
      9  CE1       13.3120   43.7810   -1.0090 C.ar    9  HIS9        0.1986
     10  NE2       13.6780   42.6620   -1.6070 N.ar    9  HIS9       -0.2212
     11  N         11.4800   51.1100   -9.3070 N.3    30  LYS30      -0.1245
     12  CA        10.1870   50.5900   -8.8900 C.3    30  LYS30       0.1561
     13  C          9.6490   51.5500   -7.8430 C.2    30  LYS30       0.2260
     14  O         10.4050   52.3370   -7.2830 O.2    30  LYS30      -0.2867
     15  CB        10.3160   49.1780   -8.2920 C.3    30  LYS30       0.0271
     16  CG        11.1610   49.0930   -7.0360 C.3    30  LYS30       0.0035
     17  CD        11.8370   47.7300   -6.9370 C.3    30  LYS30       0.0206
     18  CE        10.8620   46.6280   -6.5540 C.3    30  LYS30       0.1093
     19  NZ        10.6980   46.5750   -5.0610 N.3    30  LYS30      -0.1314
     20  N          8.5190   51.2090   -4.6600 N.3    32  THR32      -0.1203
     21  CA         9.0460   51.1060   -3.3040 C.3    32  THR32       0.1994
     22  C          9.9670   49.9080   -3.1130 C.2    32  THR32       0.2618
     23  O          9.8090   48.8770   -3.7650 O.2    32  THR32      -0.2717
     24  CB         7.9010   50.9370   -2.2650 C.3    32  THR32       0.1784
     25  OG1        6.9260   51.9730   -2.4310 O.3    32  THR32      -0.2211
     26  CG2        8.4590   50.9980   -0.8470 C.3    32  THR32       0.0376
     27  N         10.9330   50.0640   -2.2150 N.am   33  ASN33      -0.1960
     28  CA        11.8380   48.9830   -1.8540 C.3    33  ASN33       0.1819
     29  C         12.2350   49.1760   -0.3920 C.2    33  ASN33       0.2621
     30  O         12.7300   50.2390   -0.0110 O.2    33  ASN33      -0.2715
     31  CB        13.1080   48.9580   -2.7050 C.3    33  ASN33       0.1195
     32  CG        13.9390   47.7100   -2.4410 C.2    33  ASN33       0.2630
     33  OD1       13.6120   46.6340   -2.9250 O.2    33  ASN33      -0.2716
     34  ND2       14.9900   47.8430   -1.6490 N.am   33  ASN33      -0.0877
     35  N         12.0040   48.1570    0.4290 N.am   34  THR34      -0.1951
     36  CA        12.3510   48.2510    1.8400 C.3    34  THR34       0.1897
     37  C         13.6720   47.5410    2.1370 C.2    34  THR34       0.2313
     38  O         13.8700   46.3800    1.7750 O.2    34  THR34      -0.2863
     39  CB        11.2240   47.6740    2.7450 C.3    34  THR34       0.1794
     40  OG1       10.0170   48.4110    2.5240 O.3    34  THR34      -0.2208
     41  CG2       11.5980   47.7830    4.2170 C.3    34  THR34       0.0378
     42  N         13.4640   52.7360    3.9840 N.3    66  GLN66      -0.1245
     43  CA        12.5980   52.4950    2.8320 C.3    66  GLN66       0.1566
     44  C         12.6410   53.6020    1.7790 C.2    66  GLN66       0.2260
     45  O         12.5440   54.7880    2.1040 O.2    66  GLN66      -0.2867
     46  CB        11.1520   52.3230    3.3000 C.3    66  GLN66       0.0367
     47  CG        10.1530   52.0410    2.1830 C.3    66  GLN66       0.0905
     48  CD         8.7330   51.7920    2.7010 C.2    66  GLN66       0.2608
     49  OE1        8.0460   52.7100    3.1520 O.2    66  GLN66      -0.2717
     50  NE2        8.2970   50.5360    2.6410 N.am   66  GLN66      -0.0878
     51  N         10.7650   55.3390   -1.2360 N.3    68  ASN68      -0.1240
     52  CA         9.4680   55.4720   -1.8830 C.3    68  ASN68       0.1653
     53  C          9.5930   56.5130   -2.9910 C.2    68  ASN68       0.2266
     54  O         10.1110   57.6040   -2.7650 O.2    68  ASN68      -0.2867
     55  CB         8.4090   55.8820   -0.8530 C.3    68  ASN68       0.1155
     56  CG         8.2810   54.8680    0.2830 C.2    68  ASN68       0.2627
     57  OD1        7.9120   53.7110    0.0620 O.2    68  ASN68      -0.2716
     58  ND2        8.6050   55.2920    1.4970 N.am   68  ASN68      -0.0877
     59  N         11.4910   39.1150    0.3470 N.3    97  PHE97      -0.1227
     60  CA        11.0820   39.9950    1.4390 C.3    97  PHE97       0.1736
     61  C          9.5530   39.9340    1.3750 C.2    97  PHE97       0.2595
     62  O          8.9470   40.5780    0.5270 O.2    97  PHE97      -0.2718
     63  CB        11.5890   41.4210    1.1780 C.3    97  PHE97       0.0547
     64  CG        11.2590   42.3980    2.2720 C.ar   97  PHE97      -0.0202
     65  CD1       10.0400   43.0630    2.2890 C.ar   97  PHE97      -0.0042
     66  CD2       12.1670   42.6400    3.3020 C.ar   97  PHE97      -0.0042
     67  CE1        9.7280   43.9540    3.3130 C.ar   97  PHE97      -0.0003
     68  CE2       11.8660   43.5290    4.3310 C.ar   97  PHE97      -0.0003
     69  CZ        10.6470   44.1850    4.3360 C.ar   97  PHE97      -0.0000
     70  N          8.9420   39.1560    2.2680 N.am   98  ALA98      -0.1966
     71  CA         7.4920   38.9440    2.2730 C.3    98  ALA98       0.1728
     72  C          6.5980   40.0200    2.8800 C.2    98  ALA98       0.2617
     73  O          5.5460   40.3380    2.3300 O.2    98  ALA98      -0.2715
     74  CB         7.1720   37.5900    2.9230 C.3    98  ALA98       0.0334
     75  N          6.9840   40.5690    4.0210 N.am   99  GLY99      -0.1940
     76  CA         6.1500   41.5880    4.6240 C.3    99  GLY99       0.2014
     77  C          6.7880   42.2890    5.7990 C.2    99  GLY99       0.2638
     78  O          7.8970   41.9580    6.2220 O.2    99  GLY99      -0.2714
     79  N          6.0760   43.2880    6.3060 N.am  100  VAL100     -0.1977
     80  CA         6.5030   44.0720    7.4600 C.3   100  VAL100      0.1596
     81  C          5.3910   43.9790    8.4900 C.2   100  VAL100      0.2287
     82  O          4.2120   44.0980    8.1490 O.2   100  VAL100     -0.2864
     83  CB         6.6750   45.5620    7.1210 C.3   100  VAL100      0.0276
     84  CG1        7.0400   46.3320    8.3880 C.3   100  VAL100      0.0022
     85  CG2        7.7360   45.7450    6.0590 C.3   100  VAL100      0.0022
     86  N          3.9370   41.6870    9.8090 N.3   102  LYS102     -0.1245
     87  CA         3.3270   40.3690    9.7680 C.3   102  LYS102      0.1561
     88  C          3.5290   39.7460    8.4060 C.2   102  LYS102      0.2260
     89  O          4.0250   40.3810    7.4740 O.2   102  LYS102     -0.2867
     90  CB         1.8190   40.4400   10.0720 C.3   102  LYS102      0.0271
     91  CG         1.4700   40.3030   11.5630 C.3   102  LYS102      0.0035
     92  CD         0.0000   39.9490   11.7650 C.3   102  LYS102      0.0206
     93  CE        -0.3220   39.6450   13.2270 C.3   102  LYS102      0.1093
     94  NZ         0.6120   38.6120   13.8150 N.3   102  LYS102     -0.1314
     95  N          1.9150   37.6340    5.0260 N.3   104  PRO104     -0.2116
     96  CA         0.6890   37.6660    4.2260 C.3   104  PRO104      0.1372
     97  C         -0.2740   36.5520    4.6350 C.2   104  PRO104      0.2244
     98  O         -1.3780   36.8190    5.1150 O.2   104  PRO104     -0.2868
     99  CB         1.2060   37.4890    2.7980 C.3   104  PRO104      0.0268
    100  CG         2.5800   38.0810    2.8600 C.3   104  PRO104      0.0207
    101  CD         3.1060   37.5640    4.1610 C.3   104  PRO104      0.0892
@<TRIPOS>BOND
     1    11    12    1
     2    12    15    1
     3    12    13    1
     4    15    16    1
     5    13    14    2
     6    16    17    1
     7    17    18    1
     8    18    19    1
     9    20    21    1
    10    23    22    2
    11    21    22    1
    12    21    24    1
    13    22    27   am
    14    53    54    2
    15    53    52    1
    16    33    32    2
    17    31    32    1
    18    31    28    1
    19    32    34   am
    20    25    24    1
    21    24    26    1
    22    27    28    1
    23    52    51    1
    24    52    55    1
    25    28    29    1
    26    10     9   ar
    27    10     8   ar
    28     9     7   ar
    29     8     6   ar
    30    55    56    1
    31    29    30    2
    32    29    35   am
    33     1     2    1
    34     7     6   ar
    35     6     5    1
    36    57    56    2
    37    56    58   am
    38    59    60    1
    39    35    36    1
    40    62    61    2
    41     2     5    1
    42     2     3    1
    43    63    60    1
    44    63    64    1
    45    61    60    1
    46    61    70   am
    47    38    37    2
    48    44    45    2
    49    44    43    1
    50    36    37    1
    51    36    39    1
    52     3     4    2
    53    47    48    1
    54    47    46    1
    55    70    71    1
    56    64    65   ar
    57    64    66   ar
    58    71    72    1
    59    71    74    1
    60    65    67   ar
    61    73    72    2
    62    40    39    1
    63    50    48   am
    64    48    49    2
    65    39    41    1
    66    99   100    1
    67    99    96    1
    68    43    46    1
    69    43    42    1
    70   100   101    1
    71    72    75   am
    72    66    68   ar
    73    67    69   ar
    74    75    76    1
    75   101    95    1
    76    96    97    1
    77    96    95    1
    78    68    69   ar
    79    76    77    1
    80    97    98    2
    81    77    78    2
    82    77    79   am
    83    85    83    1
    84    79    80    1
    85    83    80    1
    86    83    84    1
    87    80    81    1
    88    89    88    2
    89    82    81    2
    90    88    87    1
    91    87    86    1
    92    87    90    1
    93    90    91    1
    94    91    92    1
    95    92    93    1
    96    93    94    1
