@<TRIPOS>MOLECULE
tmp/1oj4A01.pdb
 156 147 0 0 0
SMALL
GASTEIGER

@<TRIPOS>ATOM
      1  N         19.2710   16.1690   17.1530 N.3     9  LYS9       -0.1245
      2  CA        19.6360   15.2330   16.0780 C.3     9  LYS9        0.1561
      3  C         20.1560   13.9260   16.6590 C.2     9  LYS9        0.2260
      4  O         20.4390   13.8400   17.8630 O.2     9  LYS9       -0.2867
      5  CB        20.7070   15.8030   15.1280 C.3     9  LYS9        0.0271
      6  CG        21.9810   16.2820   15.8020 C.3     9  LYS9        0.0035
      7  CD        23.0080   15.1680   16.0340 C.3     9  LYS9        0.0206
      8  CE        24.2510   15.7340   16.7480 C.3     9  LYS9        0.1093
      9  NZ        25.1510   14.6590   17.2880 N.3     9  LYS9       -0.1314
     10  N         21.1430   29.5820   30.6260 N.3    56  VAL56      -0.1231
     11  CA        21.2480   28.1670   30.3470 C.3    56  VAL56       0.1692
     12  C         22.3110   27.6620   31.2910 C.2    56  VAL56       0.2592
     13  O         23.4200   28.1850   31.3150 O.2    56  VAL56      -0.2718
     14  CB        21.6380   27.8870   28.8730 C.3    56  VAL56       0.0266
     15  CG1       22.0440   26.4200   28.6790 C.3    56  VAL56       0.0020
     16  CG2       20.5020   28.2390   27.9470 C.3    56  VAL56       0.0020
     17  N         21.9680   26.6540   32.0820 N.am   57  GLU57      -0.1966
     18  CA        22.8560   26.1410   33.1370 C.3    57  GLU57       0.1733
     19  C         24.3570   26.1640   32.8140 C.2    57  GLU57       0.2617
     20  O         24.8240   25.4920   31.8940 O.2    57  GLU57      -0.2715
     21  CB        22.4320   24.7160   33.5490 C.3    57  GLU57       0.0429
     22  CG        23.2970   24.0960   34.6410 C.3    57  GLU57       0.1163
     23  CD        22.7380   24.3260   36.0390 C.2    57  GLU57       0.3649
     24  OE1       22.7160   23.3600   36.8370 O.co2  57  GLU57      -0.2457
     25  OE2       22.3240   25.4730   36.3450 O.co2  57  GLU57      -0.2457
     26  N         25.0900   26.9520   33.5960 N.am   58  GLY58      -0.1940
     27  CA        26.5410   27.0370   33.5080 C.3    58  GLY58       0.2014
     28  C         27.1270   27.7030   32.2750 C.2    58  GLY58       0.2638
     29  O         28.3300   27.5730   32.0080 O.2    58  GLY58      -0.2714
     30  N         26.2980   28.4110   31.5140 N.am   59  VAL59      -0.1977
     31  CA        26.7860   29.0760   30.3160 C.3    59  VAL59       0.1596
     32  C         26.5960   30.5790   30.4200 C.2    59  VAL59       0.2287
     33  O         25.4720   31.0540   30.5730 O.2    59  VAL59      -0.2864
     34  CB        26.0770   28.5530   29.0580 C.3    59  VAL59       0.0276
     35  CG1       26.6270   29.2390   27.8160 C.3    59  VAL59       0.0022
     36  CG2       26.2280   27.0310   28.9650 C.3    59  VAL59       0.0022
     37  N         28.9450   33.4450   26.0440 N.3    63  ASP63      -0.1225
     38  CA        29.3990   32.1150   25.6420 C.3    63  ASP63       0.1805
     39  C         28.2620   31.2950   25.0500 C.2    63  ASP63       0.2598
     40  O         28.4950   30.2940   24.3860 O.2    63  ASP63      -0.2718
     41  CB        29.9550   31.3520   26.8250 C.3    63  ASP63       0.1424
     42  CG        31.3120   31.8600   27.2650 C.2    63  ASP63       0.3668
     43  OD1       32.0260   32.4850   26.4460 O.co2  63  ASP63      -0.2456
     44  OD2       31.7370   31.6790   28.4180 O.co2  63  ASP63      -0.2456
     45  N         27.0300   31.7130   25.3180 N.am   64  ASN64      -0.1960
     46  CA        25.8740   30.9830   24.8320 C.3    64  ASN64       0.1819
     47  C         25.7740   31.0430   23.3150 C.2    64  ASN64       0.2621
     48  O         25.8730   32.1110   22.7230 O.2    64  ASN64      -0.2715
     49  CB        24.5870   31.4790   25.4980 C.3    64  ASN64       0.1195
     50  CG        23.4480   30.5280   25.2980 C.2    64  ASN64       0.2630
     51  OD1       23.0880   30.2210   24.1680 O.2    64  ASN64      -0.2716
     52  ND2       22.8900   30.0230   26.3900 N.am   64  ASN64      -0.0877
     53  N         25.5830   29.8830   22.6940 N.am   65  LEU65      -0.1963
     54  CA        25.5110   29.7880   21.2360 C.3    65  LEU65       0.1728
     55  C         24.3560   30.6200   20.6450 C.2    65  LEU65       0.2616
     56  O         24.4150   31.0490   19.5070 O.2    65  LEU65      -0.2715
     57  CB        25.4400   28.3190   20.8030 C.3    65  LEU65       0.0311
     58  CG        26.8130   27.6320   20.8900 C.3    65  LEU65       0.0022
     59  CD1       26.6750   26.1190   21.0240 C.3    65  LEU65       0.0001
     60  CD2       27.6780   27.9820   19.6790 C.3    65  LEU65       0.0001
     61  N         23.3230   30.8530   21.4370 N.am   66  ILE66      -0.1977
     62  CA        22.2200   31.7070   21.0060 C.3    66  ILE66       0.1596
     63  C         22.7260   33.1310   20.7460 C.2    66  ILE66       0.2287
     64  O         22.4380   33.7240   19.7150 O.2    66  ILE66      -0.2864
     65  CB        21.1060   31.7080   22.0640 C.3    66  ILE66       0.0276
     66  CG1       20.3670   30.3540   22.0440 C.3    66  ILE66       0.0022
     67  CG2       20.1530   32.9040   21.8510 C.3    66  ILE66       0.0022
     68  CD1       19.5030   30.0890   23.2770 C.3    66  ILE66       0.0001
     69  N         14.4660   25.1240   27.5380 N.3    94  LYS94      -0.1245
     70  CA        15.5020   24.1260   27.3160 C.3    94  LYS94       0.1561
     71  C         15.1070   22.7430   27.8180 C.2    94  LYS94       0.2260
     72  O         15.0950   22.5050   29.0270 O.2    94  LYS94      -0.2867
     73  CB        16.8070   24.5910   27.9860 C.3    94  LYS94       0.0271
     74  CG        17.9810   23.6410   27.7910 C.3    94  LYS94       0.0035
     75  CD        19.0230   24.2440   26.8540 C.3    94  LYS94       0.0206
     76  CE        19.5100   23.2320   25.8860 C.3    94  LYS94       0.1093
     77  NZ        19.8810   23.8570   24.6020 N.3    94  LYS94      -0.1314
     78  N         19.3890   17.9330   26.9550 N.3    97  PRO97      -0.2116
     79  CA        20.5330   17.9020   27.8640 C.3    97  PRO97       0.1372
     80  C         21.6880   18.7130   27.2880 C.2    97  PRO97       0.2244
     81  O         21.6240   19.1610   26.1380 O.2    97  PRO97      -0.2868
     82  CB        20.8980   16.4150   27.9120 C.3    97  PRO97       0.0268
     83  CG        20.3820   15.8680   26.6350 C.3    97  PRO97       0.0207
     84  CD        19.0990   16.6080   26.3850 C.3    97  PRO97       0.0892
     85  N         25.0100   18.8390   25.6310 N.3    98  GLY98      -0.1210
     86  CA        25.7930   17.9200   24.8220 C.3    98  GLY98       0.1956
     87  C         25.0760   16.5940   24.6350 C.2    98  GLY98       0.2612
     88  O         24.0190   16.5140   23.9700 O.2    98  GLY98      -0.2717
     89  N         25.6540   15.5510   25.2240 N.am   99  GLY99      -0.1942
     90  CA        25.0730   14.2300   25.1770 C.3    99  GLY99       0.2014
     91  C         25.0360   13.6230   23.7890 C.2    99  GLY99       0.2639
     92  O         24.6800   12.4690   23.6430 O.2    99  GLY99      -0.2714
     93  N         25.4080   14.3930   22.7690 N.am  100  GLY100     -0.1939
     94  CA        25.3950   13.8840   21.4090 C.3   100  GLY100      0.2014
     95  C         24.0990   14.1530   20.6600 C.2   100  GLY100      0.2639
     96  O         23.8590   13.5780   19.5780 O.2   100  GLY100     -0.2714
     97  N         23.2770   15.0440   21.2170 N.am  101  LEU101     -0.1963
     98  CA        22.0000   15.4230   20.6130 C.3   101  LEU101      0.1728
     99  C         22.1050   16.7320   19.8470 C.2   101  LEU101      0.2617
    100  O         21.1480   17.1420   19.1700 O.2   101  LEU101     -0.2715
    101  CB        20.9110   15.5340   21.6850 C.3   101  LEU101      0.0311
    102  CG        20.5530   14.1870   22.3450 C.3   101  LEU101      0.0022
    103  CD1       19.4530   14.3520   23.3790 C.3   101  LEU101      0.0001
    104  CD2       20.1460   13.1670   21.2850 C.3   101  LEU101      0.0001
    105  N         23.2460   17.4080   19.9900 N.am  102  GLY102     -0.1940
    106  CA        23.5100   18.6470   19.2680 C.3   102  GLY102      0.2014
    107  C         22.6600   19.8370   19.6770 C.2   102  GLY102      0.2639
    108  O         22.4310   20.7310   18.8730 O.2   102  GLY102     -0.2714
    109  N         22.2140   19.8590   20.9320 N.am  103  GLY103     -0.1939
    110  CA        21.3360   20.9160   21.4210 C.3   103  GLY103      0.2014
    111  C         21.8370   22.3370   21.1990 C.2   103  GLY103      0.2639
    112  O         21.1010   23.1750   20.6920 O.2   103  GLY103     -0.2714
    113  N         23.0830   22.6110   21.5900 N.am  104  GLY104     -0.1939
    114  CA        23.6650   23.9350   21.4110 C.3   104  GLY104      0.2014
    115  C         23.7420   24.3720   19.9550 C.2   104  GLY104      0.2639
    116  O         23.4250   25.5260   19.6180 O.2   104  GLY104     -0.2714
    117  N         24.1810   23.4520   19.0950 N.am  105  SER105     -0.1949
    118  CA        24.2670   23.7080   17.6700 C.3   105  SER105      0.1924
    119  C         22.8900   23.9760   17.0790 C.2   105  SER105      0.2314
    120  O         22.7490   24.8120   16.1810 O.2   105  SER105     -0.2863
    121  CB        24.8990   22.5260   16.9500 C.3   105  SER105      0.2116
    122  OG        26.2440   22.3920   17.3360 O.3   105  SER105     -0.2180
    123  N         20.3330   25.2330   18.7490 N.3   107  ASN107     -0.1240
    124  CA        19.9660   26.5650   19.2390 C.3   107  ASN107      0.1653
    125  C         20.5590   27.6250   18.3320 C.2   107  ASN107      0.2266
    126  O         19.8720   28.5520   17.9390 O.2   107  ASN107     -0.2867
    127  CB        20.4330   26.8210   20.6930 C.3   107  ASN107      0.1155
    128  CG        19.7550   25.9110   21.7380 C.2   107  ASN107      0.2627
    129  OD1       20.2060   25.8520   22.8900 O.2   107  ASN107     -0.2716
    130  ND2       18.6920   25.2110   21.3520 N.am  107  ASN107     -0.0877
    131  N         27.9670   20.7110   13.3990 N.3   136  ASP136     -0.1239
    132  CA        26.5500   20.3210   13.4240 C.3   136  ASP136      0.1674
    133  C         25.6430   21.4620   12.9790 C.2   136  ASP136      0.2266
    134  O         24.5540   21.2300   12.4900 O.2   136  ASP136     -0.2867
    135  CB        26.0940   19.8910   14.8260 C.3   136  ASP136      0.1410
    136  CG        26.6600   18.5310   15.2700 C.2   136  ASP136      0.3668
    137  OD1       27.2020   17.7650   14.4500 O.co2 136  ASP136     -0.2456
    138  OD2       26.5800   18.1450   16.4550 O.co2 136  ASP136     -0.2456
    139  N         33.0880   16.2210   24.3160 N.3   176  THR176     -0.1218
    140  CA        33.4510   15.7020   22.9990 C.3   176  THR176      0.1862
    141  C         34.9610   15.3350   22.8780 C.2   176  THR176      0.2287
    142  O         35.2930   14.2100   22.4880 O.2   176  THR176     -0.2866
    143  CB        33.0160   16.6960   21.9010 C.3   176  THR176      0.1770
    144  OG1       31.5850   16.7140   21.8230 O.3   176  THR176     -0.2211
    145  CG2       33.4390   16.2090   20.5190 C.3   176  THR176      0.0375
    146  N         29.3140   11.6610   20.4640 N.3   235  THR235     -0.1203
    147  CA        30.3260   11.0640   21.3370 C.3   235  THR235      0.1994
    148  C         29.7110   10.6730   22.6870 C.2   235  THR235      0.2618
    149  O         30.4370   10.4500   23.6580 O.2   235  THR235     -0.2717
    150  CB        31.5240   12.0080   21.5580 C.3   235  THR235      0.1784
    151  OG1       31.0560   13.3240   21.8790 O.3   235  THR235     -0.2211
    152  CG2       32.3020   12.2100   20.2540 C.3   235  THR235      0.0376
    153  N         28.3780   10.5830   22.7450 N.am  236  GLY236     -0.1956
    154  CA        27.6850   10.2260   23.9780 C.3   236  GLY236      0.1869
    155  C         27.4630   11.4600   24.8450 C.2   236  GLY236      0.2309
    156  O         27.8770   12.5530   24.4600 O.2   236  GLY236     -0.2863
@<TRIPOS>BOND
     1   134   133    2
     2   133   132    1
     3   131   132    1
     4   132   135    1
     5   137   136   ar
     6   135   136    1
     7     5     6    1
     8     5     2    1
     9   136   138   ar
    10     6     7    1
    11     7     8    1
    12     2     3    1
    13     2     1    1
    14   120   119    2
    15     3     4    2
    16     8     9    1
    17   121   122    1
    18   121   118    1
    19   119   118    1
    20   118   117    1
    21   126   125    2
    22   125   124    1
    23   123   124    1
    24   108   107    2
    25   117   115   am
    26   100    99    2
    27   124   127    1
    28   106   107    1
    29   106   105    1
    30    56    55    2
    31    96    95    2
    32   116   115    2
    33   107   109   am
    34    60    58    1
    35    64    63    2
    36    99   105   am
    37    99    98    1
    38   115   114    1
    39   152   150    1
    40   146   147    1
    41   145   143    1
    42    98    97    1
    43    98   101    1
    44    55    54    1
    45    55    61   am
    46    95    97   am
    47    95    94    1
    48   112   111    2
    49   127   128    1
    50    63    62    1
    51    57    58    1
    52    57    54    1
    53    58    59    1
    54   109   110    1
    55    62    61    1
    56    62    65    1
    57   111   110    1
    58   111   113   am
    59    54    53    1
    60   104   102    1
    61   147   150    1
    62   147   148    1
    63   130   128   am
    64    94    93    1
    65   114   113    1
    66   150   151    1
    67   101   102    1
    68   128   129    2
    69   144   143    1
    70    67    65    1
    71   143   140    1
    72    66    65    1
    73    66    68    1
    74   102   103    1
    75   142   141    2
    76   148   153   am
    77   148   149    2
    78    53    47   am
    79    48    47    2
    80   153   154    1
    81    93    91   am
    82   141   140    1
    83   140   139    1
    84    47    46    1
    85    92    91    2
    86    91    90    1
    87    88    87    2
    88   154   155    1
    89    51    50    2
    90    40    39    2
    91   156   155    2
    92    77    76    1
    93    87    86    1
    94    87    89   am
    95    86    85    1
    96    46    45    1
    97    46    49    1
    98    39    45   am
    99    39    38    1
   100    90    89    1
   101    50    49    1
   102    50    52   am
   103    38    37    1
   104    38    41    1
   105    76    75    1
   106    81    80    2
   107    84    83    1
   108    84    78    1
   109    43    42   ar
   110    83    82    1
   111    41    42    1
   112    75    74    1
   113    78    79    1
   114    42    44   ar
   115    80    79    1
   116    70    69    1
   117    70    71    1
   118    70    73    1
   119    74    73    1
   120    35    34    1
   121    71    72    2
   122    79    82    1
   123    16    14    1
   124    15    14    1
   125    14    11    1
   126    36    34    1
   127    34    31    1
   128    31    32    1
   129    31    30    1
   130    11    10    1
   131    11    12    1
   132    32    33    2
   133    12    13    2
   134    12    17   am
   135    30    28   am
   136    20    19    2
   137    29    28    2
   138    17    18    1
   139    28    27    1
   140    19    18    1
   141    19    26   am
   142    18    21    1
   143    27    26    1
   144    21    22    1
   145    22    23    1
   146    23    25   ar
   147    23    24   ar
