@<TRIPOS>MOLECULE
tmp/1oj4A00.pdb
 160 151 0 0 0
SMALL
GASTEIGER

@<TRIPOS>ATOM
      1  N         19.2710   16.1690   17.1530 N.3     9  LYS9       -0.1245
      2  CA        19.6360   15.2330   16.0780 C.3     9  LYS9        0.1561
      3  C         20.1560   13.9260   16.6590 C.2     9  LYS9        0.2260
      4  O         20.4390   13.8400   17.8630 O.2     9  LYS9       -0.2867
      5  CB        20.7070   15.8030   15.1280 C.3     9  LYS9        0.0271
      6  CG        21.9810   16.2820   15.8020 C.3     9  LYS9        0.0035
      7  CD        23.0080   15.1680   16.0340 C.3     9  LYS9        0.0206
      8  CE        24.2510   15.7340   16.7480 C.3     9  LYS9        0.1093
      9  NZ        25.1510   14.6590   17.2880 N.3     9  LYS9       -0.1314
     10  N         23.0900   10.8500   15.3860 N.3    11  ASN11      -0.1240
     11  CA        23.9610   10.3210   14.3690 C.3    11  ASN11       0.1653
     12  C         23.5170    8.8580   14.2300 C.2    11  ASN11       0.2266
     13  O         23.8210    8.0270   15.0980 O.2    11  ASN11      -0.2867
     14  CB        25.4430   10.4150   14.7270 C.3    11  ASN11       0.1155
     15  CG        25.8950   11.8470   15.0310 C.2    11  ASN11       0.2627
     16  OD1       25.8640   12.2790   16.1730 O.2    11  ASN11      -0.2716
     17  ND2       26.3440   12.5700   14.0020 N.am   11  ASN11      -0.0877
     18  N         28.1480    6.5650   12.7430 N.3    14  LEU14      -0.1245
     19  CA        29.3030    7.4400   12.8720 C.3    14  LEU14       0.1561
     20  C         30.5730    6.6190   12.7590 C.2    14  LEU14       0.2260
     21  O         30.8480    5.7800   13.6100 O.2    14  LEU14      -0.2867
     22  CB        29.2630    8.1760   14.2200 C.3    14  LEU14       0.0270
     23  CG        30.3380    9.2030   14.5870 C.3    14  LEU14       0.0019
     24  CD1       30.8070    9.9600   13.3890 C.3    14  LEU14       0.0001
     25  CD2       29.7850   10.1620   15.6460 C.3    14  LEU14       0.0001
     26  N         44.9910   17.0810   14.1300 N.3    23  GLY23      -0.1210
     27  CA        44.4010   16.1880   15.1130 C.3    23  GLY23       0.1956
     28  C         42.8960   15.9930   15.0120 C.2    23  GLY23       0.2612
     29  O         42.3610   15.0890   15.6440 O.2    23  GLY23      -0.2717
     30  N         42.2020   16.8450   14.2570 N.am   24  TYR24      -0.1962
     31  CA        40.7650   16.6530   14.0540 C.3    24  TYR24       0.1771
     32  C         40.5540   15.3250   13.3450 C.2    24  TYR24       0.2619
     33  O         41.4170   14.8800   12.5890 O.2    24  TYR24      -0.2715
     34  CB        40.1600   17.7710   13.2150 C.3    24  TYR24       0.0574
     35  CG        39.3850   18.8030   13.9910 C.ar   24  TYR24      -0.0198
     36  CD1       40.0440   19.7140   14.8090 C.ar   24  TYR24      -0.0009
     37  CD2       37.9950   18.9010   13.8770 C.ar   24  TYR24      -0.0009
     38  CE1       39.3450   20.6860   15.5190 C.ar   24  TYR24       0.0417
     39  CE2       37.2780   19.8730   14.5950 C.ar   24  TYR24       0.0417
     40  CZ        37.9660   20.7620   15.4110 C.ar   24  TYR24       0.1957
     41  OH        37.2950   21.7420   16.1280 O.3    24  TYR24      -0.2866
     42  N         39.4000   14.7040   13.5600 N.am   25  HIS25      -0.1973
     43  CA        39.1260   13.4060   12.9550 C.3    25  HIS25       0.1656
     44  C         38.2040   13.5130   11.7430 C.2    25  HIS25       0.2291
     45  O         37.1970   14.2400   11.7850 O.2    25  HIS25      -0.2864
     46  CB        38.5100   12.4550   13.9880 C.3    25  HIS25       0.0771
     47  CG        39.4530   12.0600   15.0820 C.ar   25  HIS25       0.0820
     48  ND1       39.8430   12.9270   16.0800 N.ar   25  HIS25      -0.2267
     49  CD2       40.0910   10.8900   15.3280 C.ar   25  HIS25       0.1154
     50  CE1       40.6840   12.3100   16.8910 C.ar   25  HIS25       0.1986
     51  NE2       40.8470   11.0700   16.4580 N.ar   25  HIS25      -0.2212
     52  N         35.4130   11.9420    9.3380 N.3    27  LEU27      -0.1245
     53  CA        34.2640   11.1120    9.6550 C.3    27  LEU27       0.1561
     54  C         33.3890   10.8110    8.4720 C.2    27  LEU27       0.2260
     55  O         33.4730   11.4650    7.4500 O.2    27  LEU27      -0.2867
     56  CB        33.3590   11.8580   10.6520 C.3    27  LEU27       0.0270
     57  CG        33.9360   12.7220   11.7580 C.3    27  LEU27       0.0019
     58  CD1       32.8470   13.4980   12.4470 C.3    27  LEU27       0.0001
     59  CD2       34.6550   11.8160   12.7380 C.3    27  LEU27       0.0001
     60  N         29.2590   10.1960    8.6360 N.3    29  THR29      -0.1218
     61  CA        28.1580   10.1020    9.5790 C.3    29  THR29       0.1862
     62  C         26.8180   10.5120    8.9550 C.2    29  THR29       0.2287
     63  O         26.7790   11.2060    7.9370 O.2    29  THR29      -0.2866
     64  CB        28.5050   10.9330   10.8640 C.3    29  THR29       0.1770
     65  OG1       27.5150   10.7210   11.8730 O.3    29  THR29      -0.2211
     66  CG2       28.4690   12.4530   10.5900 C.3    29  THR29       0.0375
     67  N         23.0140   12.1490    9.7640 N.3    31  PHE31      -0.1241
     68  CA        22.1690   12.9220   10.6590 C.3    31  PHE31       0.1605
     69  C         20.7030   12.7480   10.3360 C.2    31  PHE31       0.2264
     70  O         20.3130   12.7770    9.1710 O.2    31  PHE31      -0.2867
     71  CB        22.4450   14.4110   10.4900 C.3    31  PHE31       0.0534
     72  CG        23.7430   14.8590   11.0270 C.ar   31  PHE31      -0.0203
     73  CD1       24.8750   14.8520   10.2280 C.ar   31  PHE31      -0.0042
     74  CD2       23.8360   15.3490   12.3140 C.ar   31  PHE31      -0.0042
     75  CE1       26.0840   15.2900   10.7200 C.ar   31  PHE31      -0.0003
     76  CE2       25.0370   15.7860   12.8030 C.ar   31  PHE31      -0.0003
     77  CZ        26.1680   15.7530   12.0010 C.ar   31  PHE31      -0.0000
     78  N         25.4080   14.3930   22.7690 N.3   100  GLY100     -0.1225
     79  CA        25.3950   13.8840   21.4090 C.3   100  GLY100      0.1811
     80  C         24.0990   14.1530   20.6600 C.2   100  GLY100      0.2280
     81  O         23.8590   13.5780   19.5780 O.2   100  GLY100     -0.2866
     82  N         24.1810   23.4520   19.0950 N.3   105  SER105     -0.1217
     83  CA        24.2670   23.7080   17.6700 C.3   105  SER105      0.1889
     84  C         22.8900   23.9760   17.0790 C.2   105  SER105      0.2288
     85  O         22.7490   24.8120   16.1810 O.2   105  SER105     -0.2866
     86  CB        24.8990   22.5260   16.9500 C.3   105  SER105      0.2089
     87  OG        26.2440   22.3920   17.3360 O.3   105  SER105     -0.2183
     88  N         30.4230   25.4440   14.7540 N.3   134  GLY134     -0.1210
     89  CA        30.3930   23.9990   14.9420 C.3   134  GLY134      0.1956
     90  C         29.8790   23.2440   13.7290 C.2   134  GLY134      0.2612
     91  O         28.9730   23.7080   13.0540 O.2   134  GLY134     -0.2717
     92  N         30.4590   22.0690   13.4690 N.am  135  ALA135     -0.1965
     93  CA        30.0990   21.2470   12.3150 C.3   135  ALA135      0.1728
     94  C         28.6250   20.8420   12.2480 C.2   135  ALA135      0.2616
     95  O         28.1040   20.6080   11.1560 O.2   135  ALA135     -0.2715
     96  CB        30.9970   19.9950   12.2550 C.3   135  ALA135      0.0334
     97  N         27.9670   20.7110   13.3990 N.am  136  ASP136     -0.1971
     98  CA        26.5500   20.3210   13.4240 C.3   136  ASP136      0.1709
     99  C         25.6430   21.4620   12.9790 C.2   136  ASP136      0.2293
    100  O         24.5540   21.2300   12.4900 O.2   136  ASP136     -0.2864
    101  CB        26.0940   19.8910   14.8260 C.3   136  ASP136      0.1436
    102  CG        26.6600   18.5310   15.2700 C.2   136  ASP136      0.3671
    103  OD1       27.2020   17.7650   14.4500 O.co2 136  ASP136     -0.2456
    104  OD2       26.5800   18.1450   16.4550 O.co2 136  ASP136     -0.2456
    105  N         35.5730   16.5290    7.9510 N.3   151  VAL151     -0.1231
    106  CA        35.5360   16.5390    9.4060 C.3   151  VAL151      0.1692
    107  C         34.1050   16.8580    9.8430 C.2   151  VAL151      0.2592
    108  O         33.8580   17.2290   10.9970 O.2   151  VAL151     -0.2718
    109  CB        36.5670   17.5200   10.0540 C.3   151  VAL151      0.0266
    110  CG1       37.9930   17.0290    9.8110 C.3   151  VAL151      0.0020
    111  CG2       36.3830   18.9490    9.5460 C.3   151  VAL151      0.0020
    112  N         33.1630   16.6780    8.9130 N.am  152  GLY152     -0.1957
    113  CA        31.7560   16.9350    9.1740 C.3   152  GLY152      0.1869
    114  C         31.2150   18.0930    8.3580 C.2   152  GLY152      0.2309
    115  O         30.0180   18.3640    8.3760 O.2   152  GLY152     -0.2863
    116  N         33.0880   16.2210   24.3160 N.3   176  THR176     -0.1204
    117  CA        33.4510   15.7020   22.9990 C.3   176  THR176      0.1979
    118  C         34.9610   15.3350   22.8780 C.2   176  THR176      0.2459
    119  O         35.2930   14.2100   22.4880 O.2   176  THR176     -0.2732
    120  CB        33.0160   16.6960   21.9010 C.3   176  THR176      0.1783
    121  OG1       31.5850   16.7140   21.8230 O.3   176  THR176     -0.2211
    122  CG2       33.4390   16.2090   20.5190 C.3   176  THR176      0.0376
    123  N         35.8620   16.2700   23.2120 N.am  177  PRO177     -0.2728
    124  CA        37.3200   16.0250   23.1230 C.3   177  PRO177      0.1401
    125  C         37.8480   14.8090   23.9140 C.2   177  PRO177      0.2269
    126  O         38.8570   14.2280   23.5220 O.2   177  PRO177     -0.2865
    127  CB        37.9390   17.3300   23.6770 C.3   177  PRO177      0.0296
    128  CG        36.8250   18.0540   24.3430 C.3   177  PRO177      0.0237
    129  CD        35.5630   17.6490   23.6410 C.3   177  PRO177      0.0939
    130  N         37.3980   11.7770   21.5440 N.3   180  PHE180     -0.1227
    131  CA        38.2720   11.9210   20.3720 C.3   180  PHE180      0.1736
    132  C         39.7720   11.8160   20.6740 C.2   180  PHE180      0.2595
    133  O         40.5720   11.5260   19.7740 O.2   180  PHE180     -0.2718
    134  CB        37.9680   13.2280   19.6470 C.3   180  PHE180      0.0547
    135  CG        36.8610   13.1110   18.6580 C.ar  180  PHE180     -0.0202
    136  CD1       35.7460   13.9360   18.7400 C.ar  180  PHE180     -0.0042
    137  CD2       36.9160   12.1610   17.6490 C.ar  180  PHE180     -0.0042
    138  CE1       34.7140   13.8280   17.8260 C.ar  180  PHE180     -0.0003
    139  CE2       35.8880   12.0460   16.7290 C.ar  180  PHE180     -0.0003
    140  CZ        34.7830   12.8810   16.8190 C.ar  180  PHE180     -0.0000
    141  N         40.1480   12.0380   21.9280 N.am  181  LYS181     -0.1980
    142  CA        41.5540   11.9760   22.3210 C.3   181  LYS181      0.1596
    143  C         41.9510   10.6140   22.8940 C.2   181  LYS181      0.2287
    144  O         43.1200   10.3800   23.1910 O.2   181  LYS181     -0.2864
    145  CB        41.8770   13.0860   23.3310 C.3   181  LYS181      0.0298
    146  CG        42.6410   14.2580   22.7320 C.3   181  LYS181      0.0038
    147  CD        41.7100   15.4150   22.3800 C.3   181  LYS181      0.0206
    148  CE        41.9300   16.6050   23.3130 C.3   181  LYS181      0.1093
    149  NZ        42.5550   17.7690   22.6090 N.3   181  LYS181     -0.1314
    150  N         26.4260   10.6790   18.6110 N.3   234  GLY234     -0.1210
    151  CA        27.5340   11.5970   18.8040 C.3   234  GLY234      0.1956
    152  C         28.6600   10.9170   19.5750 C.2   234  GLY234      0.2612
    153  O         28.9460    9.7340   19.3580 O.2   234  GLY234     -0.2717
    154  N         29.3140   11.6610   20.4640 N.am  235  THR235     -0.1952
    155  CA        30.3260   11.0640   21.3370 C.3   235  THR235      0.1897
    156  C         29.7110   10.6730   22.6870 C.2   235  THR235      0.2313
    157  O         30.4370   10.4500   23.6580 O.2   235  THR235     -0.2863
    158  CB        31.5240   12.0080   21.5580 C.3   235  THR235      0.1794
    159  OG1       31.0560   13.3240   21.8790 O.3   235  THR235     -0.2208
    160  CG2       32.3020   12.2100   20.2540 C.3   235  THR235      0.0378
@<TRIPOS>BOND
     1    55    54    2
     2    63    62    2
     3   105   106    1
     4   114   115    2
     5   114   113    1
     6    54    53    1
     7    60    61    1
     8   112   113    1
     9   112   107   am
    10    62    61    1
    11    70    69    2
    12    52    53    1
    13   106   107    1
    14   106   109    1
    15   111   109    1
    16    61    64    1
    17    53    56    1
    18    67    68    1
    19   110   109    1
    20   107   108    2
    21    73    75   ar
    22    73    72   ar
    23    69    68    1
    24    71    68    1
    25    71    72    1
    26    66    64    1
    27    56    57    1
    28    75    77   ar
    29    64    65    1
    30    72    74   ar
    31    95    94    2
    32    44    45    2
    33    44    43    1
    34    57    58    1
    35    57    59    1
    36    77    76   ar
    37    94    93    1
    38    94    97   am
    39    96    93    1
    40    74    76   ar
    41    93    92    1
    42   100    99    2
    43    33    32    2
    44    18    19    1
    45    20    19    1
    46    20    21    2
    47    19    22    1
    48    43    42    1
    49    43    46    1
    50    99    98    1
    51    91    90    2
    52    34    35    1
    53    34    31    1
    54    32    42   am
    55    32    31    1
    56    24    23    1
    57    97    98    1
    58    98   101    1
    59    92    90   am
    60    90    89    1
    61    37    35   ar
    62    37    39   ar
    63    46    47    1
    64    35    36   ar
    65    17    15   am
    66    31    30    1
    67    26    27    1
    68    22    23    1
    69    12    11    1
    70    12    13    2
    71    30    28   am
    72    11    14    1
    73    11    10    1
    74   103   102   ar
    75    23    25    1
    76    39    40   ar
    77    14    15    1
    78    88    89    1
    79    36    38   ar
    80   101   102    1
    81    28    27    1
    82    28    29    2
    83    15    16    2
    84    47    49   ar
    85    47    48   ar
    86     5     6    1
    87     5     2    1
    88   102   104   ar
    89    49    51   ar
    90    40    38   ar
    91    40    41    1
    92     6     7    1
    93     7     8    1
    94     2     3    1
    95     2     1    1
    96    48    50   ar
    97    85    84    2
    98    51    50   ar
    99     3     4    2
   100   139   140   ar
   101   139   137   ar
   102     8     9    1
   103   140   138   ar
   104    86    87    1
   105    86    83    1
   106    84    83    1
   107   137   135   ar
   108    83    82    1
   109   138   136   ar
   110   150   151    1
   111   135   136   ar
   112   135   134    1
   113   151   152    1
   114   153   152    2
   115   152   154   am
   116    81    80    2
   117   134   131    1
   118   133   132    2
   119   160   158    1
   120   131   132    1
   121   131   130    1
   122   154   155    1
   123   122   120    1
   124    80    79    1
   125   132   141   am
   126   155   158    1
   127   155   156    1
   128    79    78    1
   129   158   159    1
   130   121   120    1
   131   120   117    1
   132   141   142    1
   133   142   143    1
   134   142   145    1
   135   147   146    1
   136   147   148    1
   137   119   118    2
   138   149   148    1
   139   156   157    2
   140   146   145    1
   141   118   117    1
   142   118   123   am
   143   143   144    2
   144   117   116    1
   145   124   123    1
   146   124   127    1
   147   124   125    1
   148   123   129    1
   149   126   125    2
   150   129   128    1
   151   127   128    1
