@<TRIPOS>MOLECULE
tmp/1oj6B00.pdb
 229 219 0 0 0
SMALL
GASTEIGER

@<TRIPOS>ATOM
      1  N         27.8290   72.4160   64.5160 N.3    27  LEU27      -0.1231
      2  CA        27.4360   72.6870   63.1430 C.3    27  LEU27       0.1693
      3  C         25.9860   73.1890   63.0690 C.2    27  LEU27       0.2592
      4  O         25.6940   74.2160   62.4400 O.2    27  LEU27      -0.2718
      5  CB        27.5660   71.4110   62.3020 C.3    27  LEU27       0.0284
      6  CG        27.4250   71.6070   60.7790 C.3    27  LEU27       0.0019
      7  CD1       28.1470   70.5110   60.0140 C.3    27  LEU27       0.0001
      8  CD2       25.9640   71.6540   60.3650 C.3    27  LEU27       0.0001
      9  N         25.0600   72.4370   63.7000 N.am   28  PHE28      -0.1976
     10  CA        23.6460   72.7910   63.6630 C.3    28  PHE28       0.1639
     11  C         23.3240   74.0850   64.4080 C.2    28  PHE28       0.2290
     12  O         22.4170   74.8070   64.0380 O.2    28  PHE28      -0.2864
     13  CB        22.8160   71.6140   64.1890 C.3    28  PHE28       0.0560
     14  CG        22.5500   70.6240   63.0750 C.ar   28  PHE28      -0.0200
     15  CD1       23.4570   69.6230   62.8090 C.ar   28  PHE28      -0.0042
     16  CD2       21.4310   70.7380   62.2770 C.ar   28  PHE28      -0.0042
     17  CE1       23.2390   68.7200   61.7760 C.ar   28  PHE28      -0.0003
     18  CE2       21.2070   69.8370   61.2350 C.ar   28  PHE28      -0.0003
     19  CZ        22.1140   68.8360   60.9890 C.ar   28  PHE28      -0.0000
     20  N         24.1390   76.5660   61.9080 N.3    31  LEU31      -0.1245
     21  CA        23.1390   76.4110   60.8580 C.3    31  LEU31       0.1561
     22  C         21.8480   77.1630   61.2380 C.2    31  LEU31       0.2260
     23  O         21.3340   77.9480   60.4470 O.2    31  LEU31      -0.2867
     24  CB        22.8610   74.9240   60.5940 C.3    31  LEU31       0.0270
     25  CG        21.9040   74.6150   59.4390 C.3    31  LEU31       0.0019
     26  CD1       22.4580   75.1530   58.1370 C.3    31  LEU31       0.0001
     27  CD2       21.6590   73.1200   59.3360 C.3    31  LEU31       0.0001
     28  N         14.9340   76.8700   59.4040 N.3    38  LEU38      -0.1245
     29  CA        15.2030   75.4520   59.1740 C.3    38  LEU38       0.1561
     30  C         14.6620   74.6000   60.3290 C.2    38  LEU38       0.2260
     31  O         14.3000   73.4300   60.1610 O.2    38  LEU38      -0.2867
     32  CB        16.7140   75.2070   59.0010 C.3    38  LEU38       0.0270
     33  CG        17.2990   75.6530   57.6820 C.3    38  LEU38       0.0019
     34  CD1       18.7950   75.3430   57.6280 C.3    38  LEU38       0.0001
     35  CD2       16.5620   74.9960   56.5320 C.3    38  LEU38       0.0001
     36  N         11.4800   72.4120   60.2620 N.3    41  LEU41      -0.1231
     37  CA        11.4530   71.2590   59.3530 C.3    41  LEU41       0.1693
     38  C         11.6120   69.9330   60.0700 C.2    41  LEU41       0.2592
     39  O         11.3520   68.8670   59.4970 O.2    41  LEU41      -0.2718
     40  CB        12.5320   71.3760   58.2930 C.3    41  LEU41       0.0284
     41  CG        12.4500   72.6310   57.4190 C.3    41  LEU41       0.0019
     42  CD1       13.5440   72.6230   56.3540 C.3    41  LEU41       0.0001
     43  CD2       11.0920   72.7390   56.7570 C.3    41  LEU41       0.0001
     44  N         12.0430   69.9910   61.3110 N.am   42  PHE42      -0.1962
     45  CA        12.2410   68.7900   62.1040 C.3    42  PHE42       0.1771
     46  C         11.0060   68.4460   62.9250 C.2    42  PHE42       0.2619
     47  O         10.7270   69.0780   63.9440 O.2    42  PHE42      -0.2715
     48  CB        13.4460   68.9850   63.0180 C.3    42  PHE42       0.0574
     49  CG        14.7770   68.9970   62.2910 C.ar   42  PHE42      -0.0200
     50  CD1       15.4130   67.8000   61.9580 C.ar   42  PHE42      -0.0042
     51  CD2       15.3920   70.1980   61.9540 C.ar   42  PHE42      -0.0042
     52  CE1       16.6520   67.7920   61.2930 C.ar   42  PHE42      -0.0003
     53  CE2       16.6350   70.2050   61.2890 C.ar   42  PHE42      -0.0003
     54  CZ        17.2650   68.9900   60.9670 C.ar   42  PHE42      -0.0000
     55  N         10.2580   67.4590   62.4590 N.am   43  GLN43      -0.1963
     56  CA         9.0200   67.0540   63.1160 C.3    43  GLN43       0.1733
     57  C          9.0980   65.5830   63.4330 C.2    43  GLN43       0.2616
     58  O          9.1950   64.7550   62.5260 O.2    43  GLN43      -0.2715
     59  CB         7.7850   67.3230   62.2350 C.3    43  GLN43       0.0408
     60  CG         7.3650   68.7790   62.1870 C.3    43  GLN43       0.0908
     61  CD         6.3670   69.0720   61.0790 C.2    43  GLN43       0.2608
     62  OE1        5.2590   68.5400   61.0790 O.2    43  GLN43      -0.2717
     63  NE2        6.5360   69.9020   60.0480 N.am   43  GLN43      -0.0878
     64  N          9.0500   65.2580   64.7240 N.am   44  TYR44      -0.1974
     65  CA         9.1140   63.8650   65.1750 C.3    44  TYR44       0.1639
     66  C          7.9200   63.5400   66.0810 C.2    44  TYR44       0.2290
     67  O          7.6180   64.3150   66.9870 O.2    44  TYR44      -0.2864
     68  CB        10.4190   63.5710   65.9320 C.3    44  TYR44       0.0560
     69  CG        11.6720   63.7830   65.1120 C.ar   44  TYR44      -0.0198
     70  CD1       12.0350   62.8810   64.1180 C.ar   44  TYR44      -0.0009
     71  CD2       12.4900   64.8920   65.3290 C.ar   44  TYR44      -0.0009
     72  CE1       13.1820   63.0700   63.3620 C.ar   44  TYR44       0.0417
     73  CE2       13.6350   65.0940   64.5780 C.ar   44  TYR44       0.0417
     74  CZ        13.9740   64.1840   63.5940 C.ar   44  TYR44       0.1957
     75  OH        15.1060   64.3800   62.8470 O.3    44  TYR44      -0.2866
     76  N         15.6170   61.8390   68.6100 N.3    60  GLU60      -0.1245
     77  CA        15.5320   61.7700   67.1570 C.3    60  GLU60       0.1567
     78  C         16.3760   62.8280   66.4520 C.2    60  GLU60       0.2260
     79  O         17.0360   62.5310   65.4420 O.2    60  GLU60      -0.2867
     80  CB        14.0780   61.8970   66.7160 C.3    60  GLU60       0.0388
     81  CG        13.2290   60.6780   67.0090 C.3    60  GLU60       0.1160
     82  CD        12.2940   60.9140   68.1690 C.2    60  GLU60       0.3649
     83  OE1       12.5500   61.8570   68.9490 O.co2  60  GLU60      -0.2457
     84  OE2       11.3020   60.1680   68.2960 O.co2  60  GLU60      -0.2457
     85  N         19.6690   62.4220   64.0450 N.3    64  HIS64      -0.1241
     86  CA        19.8550   62.9920   62.7310 C.3    64  HIS64       0.1621
     87  C         21.2790   63.5720   62.6080 C.2    64  HIS64       0.2264
     88  O         21.8930   63.4940   61.5570 O.2    64  HIS64      -0.2867
     89  CB        18.8030   64.0340   62.4300 C.3    64  HIS64       0.0745
     90  CG        19.0990   64.7390   61.0740 C.ar   64  HIS64       0.0817
     91  ND1       19.7080   65.9540   61.0090 N.ar   64  HIS64      -0.2268
     92  CD2       18.8400   64.3650   59.7910 C.ar   64  HIS64       0.1154
     93  CE1       19.8380   66.3150   59.7430 C.ar   64  HIS64       0.1986
     94  NE2       19.3200   65.3670   58.9850 N.ar   64  HIS64      -0.2212
     95  N         23.4920   60.8000   61.7720 N.3    67  LYS67      -0.1231
     96  CA        23.3780   60.4230   60.3390 C.3    67  LYS67       0.1693
     97  C         24.2010   61.3650   59.4730 C.2    67  LYS67       0.2591
     98  O         24.8880   60.9270   58.5550 O.2    67  LYS67      -0.2718
     99  CB        21.9180   60.4160   59.8810 C.3    67  LYS67       0.0285
    100  CG        21.0290   59.5000   60.6990 C.3    67  LYS67       0.0035
    101  CD        19.5650   59.8770   60.4970 C.3    67  LYS67       0.0206
    102  CE        18.6300   58.8330   61.0780 C.3    67  LYS67       0.1093
    103  NZ        17.2140   59.0780   60.6950 N.3    67  LYS67      -0.1314
    104  N         24.1350   62.6640   59.7880 N.am   68  VAL68      -0.1980
    105  CA        24.8910   63.6620   59.0560 C.3    68  VAL68       0.1595
    106  C         26.3560   63.2680   59.0940 C.2    68  VAL68       0.2287
    107  O         27.0320   63.2460   58.0580 O.2    68  VAL68      -0.2864
    108  CB        24.7200   65.0860   59.6480 C.3    68  VAL68       0.0276
    109  CG1       25.7160   66.0630   59.0290 C.3    68  VAL68       0.0022
    110  CG2       23.2850   65.5800   59.4430 C.3    68  VAL68       0.0022
    111  N         27.2630   60.2380   57.0390 N.3    71  VAL71      -0.1231
    112  CA        27.3620   60.5330   55.6050 C.3    71  VAL71       0.1692
    113  C         28.7020   61.1800   55.3060 C.2    71  VAL71       0.2591
    114  O         29.3590   60.8320   54.3230 O.2    71  VAL71      -0.2718
    115  CB        26.1980   61.4070   55.1100 C.3    71  VAL71       0.0266
    116  CG1       26.4320   61.8650   53.6850 C.3    71  VAL71       0.0020
    117  CG2       24.8960   60.6390   55.2210 C.3    71  VAL71       0.0020
    118  N         29.1270   62.1530   56.1140 N.am   72  ILE72      -0.1980
    119  CA        30.4230   62.7960   55.9020 C.3    72  ILE72       0.1595
    120  C         31.5350   61.7430   56.0260 C.2    72  ILE72       0.2287
    121  O         32.4760   61.7330   55.2470 O.2    72  ILE72      -0.2864
    122  CB        30.6080   64.0120   56.8310 C.3    72  ILE72       0.0276
    123  CG1       29.5190   65.0490   56.5860 C.3    72  ILE72       0.0022
    124  CG2       31.9830   64.6220   56.6410 C.3    72  ILE72       0.0022
    125  CD1       29.1870   65.8780   57.8060 C.3    72  ILE72       0.0001
    126  N         23.7180   57.2760   45.8020 N.3    88  TYR88      -0.1241
    127  CA        23.2820   57.3540   47.2050 C.3    88  TYR88       0.1605
    128  C         23.0960   58.8370   47.5900 C.2    88  TYR88       0.2264
    129  O         22.0750   59.2100   48.1840 O.2    88  TYR88      -0.2867
    130  CB        24.2850   56.6990   48.1640 C.3    88  TYR88       0.0534
    131  CG        23.9850   57.0750   49.6060 C.ar   88  TYR88      -0.0201
    132  CD1       22.8270   56.6050   50.2530 C.ar   88  TYR88      -0.0009
    133  CD2       24.8110   57.9390   50.3210 C.ar   88  TYR88      -0.0009
    134  CE1       22.5190   56.9520   51.5490 C.ar   88  TYR88       0.0417
    135  CE2       24.5190   58.2890   51.6330 C.ar   88  TYR88       0.0417
    136  CZ        23.3700   57.7970   52.2380 C.ar   88  TYR88       0.1957
    137  OH        23.0710   58.1610   53.5340 O.3    88  TYR88      -0.2866
    138  N         19.7450   61.1150   48.5980 N.3    92  LEU92      -0.1245
    139  CA        19.7420   61.9130   49.8310 C.3    92  LEU92       0.1561
    140  C         19.1370   63.2610   49.4930 C.2    92  LEU92       0.2260
    141  O         18.3890   63.8310   50.2920 O.2    92  LEU92      -0.2867
    142  CB        21.1600   62.0570   50.4200 C.3    92  LEU92       0.0270
    143  CG        21.3060   62.2220   51.9360 C.3    92  LEU92       0.0019
    144  CD1       20.3710   61.2740   52.6860 C.3    92  LEU92       0.0001
    145  CD2       22.7460   61.9990   52.3620 C.3    92  LEU92       0.0001
    146  N         15.3900   62.9840   49.2050 N.3    95  LYS95      -0.1231
    147  CA        14.8030   62.7000   50.5040 C.3    95  LYS95       0.1693
    148  C         14.6850   63.9930   51.2940 C.2    95  LYS95       0.2592
    149  O         13.7570   64.1480   52.0700 O.2    95  LYS95      -0.2718
    150  CB        15.6210   61.6390   51.2580 C.3    95  LYS95       0.0285
    151  CG        15.5500   60.2560   50.6080 C.3    95  LYS95       0.0035
    152  CD        16.3840   59.2320   51.3710 C.3    95  LYS95       0.0206
    153  CE        16.7550   58.0620   50.4940 C.3    95  LYS95       0.1093
    154  NZ        18.1000   57.5110   50.8280 N.3    95  LYS95      -0.1314
    155  N         15.6170   64.9220   51.1060 N.am   96  HIS96      -0.1976
    156  CA        15.5380   66.2030   51.8370 C.3    96  HIS96       0.1656
    157  C         14.4850   67.0960   51.1870 C.2    96  HIS96       0.2291
    158  O         13.7880   67.8430   51.8710 O.2    96  HIS96      -0.2864
    159  CB        16.9070   66.8600   51.9300 C.3    96  HIS96       0.0771
    160  CG        17.7600   66.1640   53.0240 C.ar   96  HIS96       0.0820
    161  ND1       18.5880   65.1030   52.7320 N.ar   96  HIS96      -0.2267
    162  CD2       17.8600   66.3620   54.3620 C.ar   96  HIS96       0.1154
    163  CE1       19.1780   64.6870   53.8400 C.ar   96  HIS96       0.1986
    164  NE2       18.7550   65.4360   54.8420 N.ar   96  HIS96      -0.2212
    165  N         10.9800   66.5410   52.5290 N.3    99  VAL99      -0.1245
    166  CA        10.6170   67.0430   53.8380 C.3    99  VAL99       0.1561
    167  C         10.6650   68.5560   53.8500 C.2    99  VAL99       0.2260
    168  O         10.7200   69.1830   54.9010 O.2    99  VAL99      -0.2867
    169  CB        11.4630   66.4130   54.9800 C.3    99  VAL99       0.0252
    170  CG1       11.1680   64.9310   55.0960 C.3    99  VAL99       0.0019
    171  CG2       12.9320   66.6470   54.7430 C.3    99  VAL99       0.0019
    172  N         13.0290   70.6980   52.4920 N.3   101  VAL101     -0.1245
    173  CA        14.2790   71.4450   52.5070 C.3   101  VAL101      0.1561
    174  C         14.5350   72.0240   51.1270 C.2   101  VAL101      0.2260
    175  O         14.3170   71.3660   50.1210 O.2   101  VAL101     -0.2867
    176  CB        15.5320   70.5940   52.8440 C.3   101  VAL101      0.0252
    177  CG1       16.7700   71.4820   52.9050 C.3   101  VAL101      0.0019
    178  CG2       15.3410   69.8410   54.1430 C.3   101  VAL101      0.0019
    179  N         19.5440   75.7580   50.9670 N.3   105  SER105     -0.1202
    180  CA        19.9140   75.6050   52.3710 C.3   105  SER105      0.2020
    181  C         21.2200   74.8370   52.5360 C.2   105  SER105      0.2618
    182  O         21.9200   74.9890   53.5480 O.2   105  SER105     -0.2717
    183  CB        18.7910   74.9440   53.1400 C.3   105  SER105      0.2103
    184  OG        17.6640   75.7980   53.2420 O.3   105  SER105     -0.2182
    185  N         21.5640   73.9930   51.5620 N.am  106  PHE106     -0.1975
    186  CA        22.7740   73.1830   51.6990 C.3   106  PHE106      0.1639
    187  C         24.0350   74.0120   51.5480 C.2   106  PHE106      0.2290
    188  O         25.1240   73.5490   51.8890 O.2   106  PHE106     -0.2864
    189  CB        22.7550   71.9810   50.7210 C.3   106  PHE106      0.0560
    190  CG        21.8640   70.8890   51.2240 C.ar  106  PHE106     -0.0200
    191  CD1       22.2690   70.0420   52.2410 C.ar  106  PHE106     -0.0042
    192  CD2       20.5770   70.7300   50.7230 C.ar  106  PHE106     -0.0042
    193  CE1       21.4140   69.0450   52.7230 C.ar  106  PHE106     -0.0003
    194  CE2       19.7260   69.7700   51.1950 C.ar  106  PHE106     -0.0003
    195  CZ        20.1460   68.9160   52.2000 C.ar  106  PHE106     -0.0000
    196  N         24.5900   75.0370   54.9290 N.3   109  VAL109     -0.1245
    197  CA        25.1270   73.8800   55.6250 C.3   109  VAL109      0.1561
    198  C         26.6200   73.9140   55.3870 C.2   109  VAL109      0.2260
    199  O         27.4100   73.6680   56.3020 O.2   109  VAL109     -0.2867
    200  CB        24.5210   72.5670   55.1000 C.3   109  VAL109      0.0252
    201  CG1       25.3270   71.3760   55.6070 C.3   109  VAL109      0.0019
    202  CG2       23.0610   72.4550   55.5100 C.3   109  VAL109      0.0019
    203  N         32.8010   68.9850   49.8270 N.3   137  TYR137     -0.1241
    204  CA        31.4230   69.3410   50.1090 C.3   137  TYR137      0.1605
    205  C         30.7300   69.7970   48.8230 C.2   137  TYR137      0.2264
    206  O         29.5480   69.5310   48.6140 O.2   137  TYR137     -0.2867
    207  CB        31.3120   70.4100   51.1920 C.3   137  TYR137      0.0534
    208  CG        29.8750   70.6880   51.5560 C.ar  137  TYR137     -0.0201
    209  CD1       29.1420   69.7680   52.2940 C.ar  137  TYR137     -0.0009
    210  CD2       29.2360   71.8580   51.1400 C.ar  137  TYR137     -0.0009
    211  CE1       27.8230   69.9910   52.6010 C.ar  137  TYR137      0.0417
    212  CE2       27.9070   72.0670   51.4190 C.ar  137  TYR137      0.0417
    213  CZ        27.2080   71.1380   52.1570 C.ar  137  TYR137      0.1957
    214  OH        25.8930   71.3550   52.4630 O.3   137  TYR137     -0.2866
    215  N         29.5010   66.8120   47.0490 N.3   140  VAL140     -0.1245
    216  CA        28.3530   66.2230   47.7290 C.3   140  VAL140      0.1561
    217  C         27.1160   66.9710   47.2620 C.2   140  VAL140      0.2260
    218  O         26.1350   66.3680   46.8310 O.2   140  VAL140     -0.2867
    219  CB        28.4700   66.3200   49.2860 C.3   140  VAL140      0.0252
    220  CG1       27.1200   66.0450   49.9240 C.3   140  VAL140      0.0019
    221  CG2       29.5150   65.3400   49.8160 C.3   140  VAL140      0.0019
    222  N         23.7300   65.8130   45.0970 N.3   144  MET144     -0.1245
    223  CA        22.3850   65.9900   45.6140 C.3   144  MET144      0.1570
    224  C         21.5620   66.7590   44.5930 C.2   144  MET144      0.2261
    225  O         20.4120   66.4160   44.3320 O.2   144  MET144     -0.2867
    226  CB        22.4070   66.7290   46.9530 C.3   144  MET144      0.0387
    227  CG        23.1840   66.0070   48.0530 C.3   144  MET144      0.0595
    228  SD        23.0230   66.8030   49.6700 S.3   144  MET144     -0.1393
    229  CE        22.6750   65.3870   50.7100 C.3   144  MET144      0.0692
@<TRIPOS>BOND
     1   225   224    2
     2   224   223    1
     3   222   223    1
     4   223   226    1
     5   126   127    1
     6   218   217    2
     7   226   227    1
     8   215   216    1
     9   127   128    1
    10   127   130    1
    11   217   216    1
    12   128   129    2
    13   216   219    1
    14   227   228    1
    15   130   131    1
    16   138   139    1
    17   206   205    2
    18   205   204    1
    19   146   147    1
    20   219   221    1
    21   219   220    1
    22   140   139    1
    23   140   141    2
    24   131   132   ar
    25   131   133   ar
    26   228   229    1
    27   203   204    1
    28   139   142    1
    29   204   207    1
    30   175   174    2
    31   132   134   ar
    32   133   135   ar
    33   142   143    1
    34   153   154    1
    35   153   152    1
    36   147   150    1
    37   147   148    1
    38   151   150    1
    39   151   152    1
    40   189   190    1
    41   189   186    1
    42   192   194   ar
    43   192   190   ar
    44   179   180    1
    45   155   148   am
    46   155   156    1
    47   174   173    1
    48   210   212   ar
    49   210   208   ar
    50   157   156    1
    51   157   158    2
    52   207   208    1
    53   194   195   ar
    54   190   191   ar
    55   148   149    2
    56   212   213   ar
    57   187   186    1
    58   187   188    2
    59   134   136   ar
    60   208   209   ar
    61   185   186    1
    62   185   181   am
    63   135   136   ar
    64   156   159    1
    65   159   160    1
    66   143   145    1
    67   143   144    1
    68   213   214    1
    69   213   211   ar
    70   195   193   ar
    71   136   137    1
    72   191   193   ar
    73   209   211   ar
    74   180   181    1
    75   180   183    1
    76   172   173    1
    77   173   176    1
    78   165   166    1
    79   181   182    2
    80   161   160   ar
    81   161   163   ar
    82   176   177    1
    83   176   178    1
    84   160   162   ar
    85   183   184    1
    86   116   115    1
    87   166   167    1
    88   166   169    1
    89   163   164   ar
    90   167   168    2
    91   114   113    2
    92   162   164   ar
    93   171   169    1
    94   196   197    1
    95   169   170    1
    96   200   202    1
    97   200   201    1
    98   200   197    1
    99   115   117    1
   100   115   112    1
   101   121   120    2
   102   113   112    1
   103   113   118   am
   104   198   197    1
   105   198   199    2
   106   112   111    1
   107   119   120    1
   108   119   118    1
   109   119   122    1
   110    42    41    1
   111    35    33    1
   112   123   122    1
   113   123   125    1
   114   124   122    1
   115    43    41    1
   116    41    40    1
   117    34    33    1
   118    33    32    1
   119   107   106    2
   120    26    25    1
   121    40    37    1
   122    98    97    2
   123    94    93   ar
   124    94    92   ar
   125    32    29    1
   126   109   108    1
   127   105   106    1
   128   105   108    1
   129   105   104    1
   130    29    28    1
   131    29    30    1
   132    27    25    1
   133    37    38    1
   134    37    36    1
   135    25    24    1
   136   110   108    1
   137    97   104   am
   138    97    96    1
   139    39    38    2
   140    93    91   ar
   141    92    90   ar
   142    99    96    1
   143    99   100    1
   144     7     6    1
   145    63    61   am
   146    38    44   am
   147    31    30    2
   148    96    95    1
   149     8     6    1
   150    23    22    2
   151   101   100    1
   152   101   102    1
   153    24    21    1
   154   103   102    1
   155     6     5    1
   156    21    22    1
   157    21    20    1
   158    54    53   ar
   159    54    52   ar
   160    19    18   ar
   161    19    17   ar
   162    91    90   ar
   163    90    89    1
   164    61    62    2
   165    61    60    1
   166    18    16   ar
   167    53    51   ar
   168    52    50   ar
   169    44    45    1
   170    88    87    2
   171    17    15   ar
   172    51    49   ar
   173    50    49   ar
   174    45    46    1
   175    45    48    1
   176    60    59    1
   177    59    56    1
   178    16    14   ar
   179    49    48    1
   180     5     2    1
   181    89    86    1
   182     4     3    2
   183    55    46   am
   184    55    56    1
   185    58    57    2
   186    87    86    1
   187    86    85    1
   188    15    14   ar
   189    75    74    1
   190    46    47    2
   191     3     2    1
   192     3     9   am
   193    14    13    1
   194    56    57    1
   195     2     1    1
   196    72    74   ar
   197    72    70   ar
   198    57    64   am
   199    74    73   ar
   200    10     9    1
   201    10    13    1
   202    10    11    1
   203    12    11    2
   204    70    69   ar
   205    73    71   ar
   206    64    65    1
   207    69    71   ar
   208    69    68    1
   209    65    68    1
   210    65    66    1
   211    79    78    2
   212    66    67    2
   213    78    77    1
   214    80    81    1
   215    80    77    1
   216    81    82    1
   217    77    76    1
   218    82    84   ar
   219    82    83   ar
