@<TRIPOS>MOLECULE
tmp/1oj9A01.pdb
 169 164 0 0 0
SMALL
GASTEIGER

@<TRIPOS>ATOM
      1  N         60.3100  153.1000   22.7810 N.3    58  TYR58      -0.1241
      2  CA        60.7400  153.5410   24.1090 C.3    58  TYR58       0.1605
      3  C         61.1280  152.4010   25.0300 C.2    58  TYR58       0.2264
      4  O         60.4940  151.3400   25.0290 O.2    58  TYR58      -0.2867
      5  CB        59.6670  154.4290   24.7790 C.3    58  TYR58       0.0534
      6  CG        59.2660  155.5950   23.9090 C.ar   58  TYR58      -0.0201
      7  CD1       58.0680  155.5720   23.1900 C.ar   58  TYR58      -0.0009
      8  CD2       60.1100  156.6990   23.7600 C.ar   58  TYR58      -0.0009
      9  CE1       57.7080  156.6290   22.3480 C.ar   58  TYR58       0.0417
     10  CE2       59.7660  157.7640   22.9210 C.ar   58  TYR58       0.0417
     11  CZ        58.5640  157.7180   22.2200 C.ar   58  TYR58       0.1957
     12  OH        58.2100  158.7540   21.3900 O.3    58  TYR58      -0.2866
     13  N         55.2580  164.0620   36.5070 N.3   100  PRO100     -0.2116
     14  CA        54.5930  163.0390   35.6870 C.3   100  PRO100      0.1372
     15  C         53.0860  163.2690   35.5130 C.2   100  PRO100      0.2244
     16  O         52.5720  163.0300   34.4160 O.2   100  PRO100     -0.2868
     17  CB        54.8390  161.7350   36.4640 C.3   100  PRO100      0.0268
     18  CG        55.8200  162.0720   37.5480 C.3   100  PRO100      0.0207
     19  CD        55.7050  163.5300   37.8060 C.3   100  PRO100      0.0892
     20  N         49.5270  165.5190   35.4860 N.3   102  PRO102     -0.2116
     21  CA        48.9210  166.8450   35.2900 C.3   102  PRO102      0.1372
     22  C         48.2070  167.3140   36.5690 C.2   102  PRO102      0.2244
     23  O         47.3540  166.5850   37.0880 O.2   102  PRO102     -0.2868
     24  CB        47.9060  166.6140   34.1660 C.3   102  PRO102      0.0268
     25  CG        48.3030  165.3280   33.5340 C.3   102  PRO102      0.0207
     26  CD        48.9220  164.4980   34.6120 C.3   102  PRO102      0.0892
     27  N         44.2390  157.2900   40.8260 N.3   117  TRP117     -0.1241
     28  CA        45.5740  156.7210   40.6450 C.3   117  TRP117      0.1605
     29  C         45.9250  155.7470   41.7750 C.2   117  TRP117      0.2264
     30  O         46.4130  154.6440   41.5190 O.2   117  TRP117     -0.2867
     31  CB        46.6430  157.8200   40.5320 C.3   117  TRP117      0.0550
     32  CG        46.4490  158.7640   39.3660 C.ar  117  TRP117      0.0003
     33  CD1       46.1060  160.0870   39.4290 C.ar  117  TRP117      0.0946
     34  CD2       46.5890  158.4590   37.9660 C.ar  117  TRP117      0.0152
     35  NE1       46.0160  160.6160   38.1630 N.ar  117  TRP117     -0.2442
     36  CE2       46.3120  159.6440   37.2470 C.ar  117  TRP117      0.0810
     37  CE3       46.9210  157.3010   37.2450 C.ar  117  TRP117      0.0012
     38  CZ2       46.3550  159.7070   35.8490 C.ar  117  TRP117      0.0191
     39  CZ3       46.9690  157.3650   35.8550 C.ar  117  TRP117      0.0001
     40  CH2       46.6840  158.5630   35.1710 C.ar  117  TRP117      0.0015
     41  N         40.5120  162.1430   32.1460 N.3   162  LEU162     -0.1245
     42  CA        41.9310  161.8250   32.2090 C.3   162  LEU162      0.1561
     43  C         42.1990  160.3220   32.3160 C.2   162  LEU162      0.2260
     44  O         43.1160  159.8050   31.6680 O.2   162  LEU162     -0.2867
     45  CB        42.6180  162.5870   33.3500 C.3   162  LEU162      0.0270
     46  CG        44.1550  162.5460   33.2790 C.3   162  LEU162      0.0019
     47  CD1       44.6760  163.0780   31.9280 C.3   162  LEU162      0.0001
     48  CD2       44.7950  163.2870   34.4450 C.3   162  LEU162      0.0001
     49  N         41.6110  158.7420   28.8620 N.3   165  LEU165     -0.1231
     50  CA        42.7790  158.9790   28.0320 C.3   165  LEU165      0.1693
     51  C         43.9180  158.0360   28.4400 C.2   165  LEU165      0.2592
     52  O         44.5940  157.4680   27.5840 O.2   165  LEU165     -0.2718
     53  CB        43.2180  160.4480   28.1320 C.3   165  LEU165      0.0284
     54  CG        44.3340  160.9080   27.1880 C.3   165  LEU165      0.0019
     55  CD1       44.1400  162.3770   26.8350 C.3   165  LEU165      0.0001
     56  CD2       45.7220  160.6730   27.7840 C.3   165  LEU165      0.0001
     57  N         44.1100  157.8800   29.7490 N.am  166  PHE166     -0.1976
     58  CA        45.1060  156.9630   30.3190 C.3   166  PHE166      0.1639
     59  C         44.9250  155.5310   29.7890 C.2   166  PHE166      0.2290
     60  O         45.8820  154.9090   29.3310 O.2   166  PHE166     -0.2864
     61  CB        45.0450  157.0390   31.8590 C.3   166  PHE166      0.0560
     62  CG        45.8470  155.9770   32.5790 C.ar  166  PHE166     -0.0200
     63  CD1       47.2380  155.9320   32.4770 C.ar  166  PHE166     -0.0042
     64  CD2       45.2050  155.0450   33.3960 C.ar  166  PHE166     -0.0042
     65  CE1       47.9710  154.9500   33.1550 C.ar  166  PHE166     -0.0003
     66  CE2       45.9260  154.0670   34.0780 C.ar  166  PHE166     -0.0003
     67  CZ        47.3130  154.0160   33.9590 C.ar  166  PHE166     -0.0000
     68  N         45.6400  155.3960   25.8980 N.3   169  LEU169     -0.1231
     69  CA        47.0630  155.5130   25.5950 C.3   169  LEU169      0.1693
     70  C         47.8840  154.2730   25.9850 C.2   169  LEU169      0.2592
     71  O         48.7930  153.8780   25.2510 O.2   169  LEU169     -0.2718
     72  CB        47.6410  156.7720   26.2500 C.3   169  LEU169      0.0284
     73  CG        49.0940  157.1710   25.9570 C.3   169  LEU169      0.0019
     74  CD1       49.3690  157.3110   24.4580 C.3   169  LEU169      0.0001
     75  CD2       49.4110  158.4640   26.6710 C.3   169  LEU169      0.0001
     76  N         47.5620  153.6630   27.1260 N.am  170  CYS170     -0.1970
     77  CA        48.2810  152.4790   27.5840 C.3   170  CYS170      0.1712
     78  C         48.0430  151.2550   26.7100 C.2   170  CYS170      0.2296
     79  O         48.9750  150.4920   26.4560 O.2   170  CYS170     -0.2864
     80  CB        47.9220  152.1470   29.0330 C.3   170  CYS170      0.0983
     81  SG        48.6620  153.2670   30.2320 S.3   170  CYS170     -0.0798
     82  N         54.4920  153.3920   34.5490 N.3   196  ILE196     -0.1231
     83  CA        53.9820  153.2450   33.1850 C.3   196  ILE196      0.1692
     84  C         53.8110  154.5790   32.4450 C.2   196  ILE196      0.2591
     85  O         54.0720  154.6540   31.2410 O.2   196  ILE196     -0.2718
     86  CB        52.6930  152.3390   33.1270 C.3   196  ILE196      0.0266
     87  CG1       52.5750  151.6580   31.7580 C.3   196  ILE196      0.0019
     88  CG2       51.4160  153.1280   33.4760 C.3   196  ILE196      0.0020
     89  CD1       51.4510  150.6200   31.6600 C.3   196  ILE196      0.0001
     90  N         53.4120  155.6300   33.1630 N.am  197  ILE197     -0.1980
     91  CA        53.1350  156.9310   32.5300 C.3   197  ILE197      0.1595
     92  C         54.3400  157.8620   32.4010 C.2   197  ILE197      0.2287
     93  O         54.2820  158.8510   31.6640 O.2   197  ILE197     -0.2864
     94  CB        51.9750  157.6890   33.2570 C.3   197  ILE197      0.0276
     95  CG1       52.3950  158.1220   34.6630 C.3   197  ILE197      0.0022
     96  CG2       50.7080  156.8500   33.2900 C.3   197  ILE197      0.0022
     97  CD1       52.0330  159.5670   35.0040 C.3   197  ILE197      0.0001
     98  N         59.0020  155.6890   29.1870 N.3   204  GLN204     -0.1245
     99  CA        59.3000  156.4910   28.0080 C.3   204  GLN204      0.1566
    100  C         60.5960  157.3040   28.1340 C.2   204  GLN204      0.2260
    101  O         60.7950  158.2660   27.3900 O.2   204  GLN204     -0.2867
    102  CB        58.1120  157.4120   27.6720 C.3   204  GLN204      0.0367
    103  CG        56.8930  156.7060   27.0920 C.3   204  GLN204      0.0905
    104  CD        56.1710  155.8470   28.1210 C.2   204  GLN204      0.2608
    105  OE1       56.1050  154.6290   27.9780 O.2   204  GLN204     -0.2717
    106  NE2       55.6490  156.4780   29.1640 N.am  204  GLN204     -0.0878
    107  N         49.5690  166.3130   26.4860 N.3   314  ILE314     -0.1245
    108  CA        48.4800  165.4110   26.8510 C.3   314  ILE314      0.1561
    109  C         47.1880  166.1220   26.4800 C.2   314  ILE314      0.2260
    110  O         46.8210  167.1180   27.1040 O.2   314  ILE314     -0.2867
    111  CB        48.5350  165.0490   28.3520 C.3   314  ILE314      0.0252
    112  CG1       49.8510  164.3260   28.6800 C.3   314  ILE314      0.0019
    113  CG2       47.3340  164.1720   28.7520 C.3   314  ILE314      0.0019
    114  CD1       50.3780  164.5760   30.0730 C.3   314  ILE314      0.0001
    115  N         48.3090  162.2570   22.5700 N.3   324  TYR324     -0.1241
    116  CA        49.6170  162.2690   23.2330 C.3   324  TYR324      0.1605
    117  C         50.7780  162.4380   22.2640 C.2   324  TYR324      0.2264
    118  O         50.8380  161.7810   21.2190 O.2   324  TYR324     -0.2867
    119  CB        49.8140  160.9820   24.0260 C.3   324  TYR324      0.0534
    120  CG        50.9610  160.9870   25.0260 C.ar  324  TYR324     -0.0201
    121  CD1       50.8830  161.7100   26.2210 C.ar  324  TYR324     -0.0009
    122  CD2       52.1030  160.2250   24.7960 C.ar  324  TYR324     -0.0009
    123  CE1       51.9280  161.6900   27.1440 C.ar  324  TYR324      0.0417
    124  CE2       53.1540  160.1990   25.7130 C.ar  324  TYR324      0.0417
    125  CZ        53.0550  160.9270   26.8810 C.ar  324  TYR324      0.1957
    126  OH        54.0840  160.8860   27.7870 O.3   324  TYR324     -0.2866
    127  N         55.2820  163.2000   22.0530 N.3   326  LEU326     -0.1245
    128  CA        56.6080  163.3760   22.6440 C.3   326  LEU326      0.1561
    129  C         57.5510  164.0040   21.6050 C.2   326  LEU326      0.2260
    130  O         57.3830  163.8200   20.3890 O.2   326  LEU326     -0.2867
    131  CB        57.1850  162.0410   23.1400 C.3   326  LEU326      0.0270
    132  CG        56.5460  161.3300   24.3450 C.3   326  LEU326      0.0019
    133  CD1       56.9170  159.8520   24.3540 C.3   326  LEU326      0.0001
    134  CD2       56.9390  161.9720   25.6660 C.3   326  LEU326      0.0001
    135  N         50.4400  159.8440   18.7710 N.3   341  PHE341     -0.1241
    136  CA        49.6100  158.6480   18.5770 C.3   341  PHE341      0.1605
    137  C         48.1610  159.0120   18.2450 C.2   341  PHE341      0.2264
    138  O         47.5710  159.8750   18.8990 O.2   341  PHE341     -0.2867
    139  CB        49.5860  157.7860   19.8460 C.3   341  PHE341      0.0534
    140  CG        50.8840  157.1120   20.1630 C.ar  341  PHE341     -0.0203
    141  CD1       51.5070  157.3250   21.3920 C.ar  341  PHE341     -0.0042
    142  CD2       51.4750  156.2370   19.2550 C.ar  341  PHE341     -0.0042
    143  CE1       52.7180  156.6800   21.6990 C.ar  341  PHE341     -0.0003
    144  CE2       52.6810  155.6010   19.5520 C.ar  341  PHE341     -0.0003
    145  CZ        53.3010  155.8220   20.7730 C.ar  341  PHE341     -0.0000
    146  N         49.5600  148.4510   20.4600 N.3   396  TYR396     -0.1241
    147  CA        50.8940  147.8760   20.6850 C.3   396  TYR396      0.1605
    148  C         50.8130  146.3790   20.9150 C.2   396  TYR396      0.2264
    149  O         51.7310  145.6360   20.5620 O.2   396  TYR396     -0.2867
    150  CB        51.5730  148.5140   21.9040 C.3   396  TYR396      0.0534
    151  CG        51.1890  149.9560   22.1580 C.ar  396  TYR396     -0.0201
    152  CD1       51.3750  150.9350   21.1720 C.ar  396  TYR396     -0.0009
    153  CD2       50.6490  150.3470   23.3800 C.ar  396  TYR396     -0.0009
    154  CE1       51.0240  152.2540   21.3960 C.ar  396  TYR396      0.0417
    155  CE2       50.2960  151.6760   23.6170 C.ar  396  TYR396      0.0417
    156  CZ        50.4840  152.6200   22.6160 C.ar  396  TYR396      0.1957
    157  OH        50.1360  153.9320   22.8230 O.3   396  TYR396     -0.2866
    158  N         55.4870  145.0740   25.8330 N.3   433  TYR433     -0.1241
    159  CA        56.6650  145.8740   25.4710 C.3   433  TYR433      0.1605
    160  C         57.7740  145.0190   24.8750 C.2   433  TYR433      0.2264
    161  O         57.7000  143.7880   24.8790 O.2   433  TYR433     -0.2867
    162  CB        57.1970  146.6180   26.7140 C.3   433  TYR433      0.0534
    163  CG        56.2630  147.6960   27.2290 C.ar  433  TYR433     -0.0201
    164  CD1       55.0210  147.3680   27.7890 C.ar  433  TYR433     -0.0009
    165  CD2       56.6070  149.0520   27.1280 C.ar  433  TYR433     -0.0009
    166  CE1       54.1580  148.3550   28.2490 C.ar  433  TYR433      0.0417
    167  CE2       55.7540  150.0410   27.5940 C.ar  433  TYR433      0.0417
    168  CZ        54.5310  149.6810   28.1460 C.ar  433  TYR433      0.1957
    169  OH        53.6880  150.6530   28.6000 O.3   433  TYR433     -0.2866
@<TRIPOS>BOND
     1   137   136    1
     2   137   138    2
     3   136   135    1
     4   136   139    1
     5   142   144   ar
     6   142   140   ar
     7   144   145   ar
     8   139   140    1
     9   140   141   ar
    10   130   129    2
    11   146   147    1
    12   149   148    2
    13   147   148    1
    14   147   150    1
    15   145   143   ar
    16   152   154   ar
    17   152   151   ar
    18   118   117    2
    19    12    11    1
    20   141   143   ar
    21   154   156   ar
    22   129   128    1
    23   150   151    1
    24   127   128    1
    25   151   153   ar
    26    11     9   ar
    27    11    10   ar
    28   117   116    1
    29     9     7   ar
    30   115   116    1
    31   156   157    1
    32   156   155   ar
    33   128   131    1
    34     1     2    1
    35    10     8   ar
    36   131   132    1
    37     7     6   ar
    38   116   119    1
    39   153   155   ar
    40     8     6   ar
    41     6     5    1
    42   119   120    1
    43     2     5    1
    44     2     3    1
    45   132   133    1
    46   132   134    1
    47    74    73    1
    48   122   120   ar
    49   122   124   ar
    50   160   161    2
    51   160   159    1
    52   120   121   ar
    53     4     3    2
    54    71    70    2
    55   159   158    1
    56   159   162    1
    57    69    68    1
    58    69    70    1
    59    69    72    1
    60   124   125   ar
    61    73    72    1
    62    73    75    1
    63    70    76   am
    64   121   123   ar
    65    79    78    2
    66   109   108    1
    67   109   110    2
    68   107   108    1
    69    78    77    1
    70   162   163    1
    71    55    54    1
    72   108   111    1
    73   125   123   ar
    74   125   126    1
    75   103   102    1
    76   103   104    1
    77    76    77    1
    78   165   163   ar
    79   165   167   ar
    80    54    56    1
    81    54    53    1
    82   163   164   ar
    83   101   100    2
    84    77    80    1
    85    52    51    2
    86   167   168   ar
    87   102    99    1
    88   164   166   ar
    89   105   104    2
    90    99   100    1
    91    99    98    1
    92    50    53    1
    93    50    51    1
    94    50    49    1
    95   104   106   am
    96   168   166   ar
    97   168   169    1
    98   111   112    1
    99   111   113    1
   100    51    57   am
   101   112   114    1
   102    80    81    1
   103    60    59    2
   104    57    58    1
   105    59    58    1
   106    58    61    1
   107    85    84    2
   108    89    87    1
   109    93    92    2
   110    44    43    2
   111    87    86    1
   112    61    62    1
   113    47    46    1
   114    41    42    1
   115    42    43    1
   116    42    45    1
   117    92    91    1
   118    84    90   am
   119    84    83    1
   120    63    62   ar
   121    63    65   ar
   122    91    90    1
   123    91    94    1
   124    62    64   ar
   125    86    83    1
   126    86    88    1
   127    65    67   ar
   128    83    82    1
   129    94    96    1
   130    94    95    1
   131    46    45    1
   132    46    48    1
   133    64    66   ar
   134    25    24    1
   135    25    26    1
   136    67    66   ar
   137    24    21    1
   138    16    15    2
   139    26    20    1
   140    95    97    1
   141    40    38   ar
   142    40    39   ar
   143    21    20    1
   144    21    22    1
   145    15    14    1
   146    14    17    1
   147    14    13    1
   148    38    36   ar
   149    39    37   ar
   150    17    18    1
   151    13    19    1
   152    22    23    2
   153    37    34   ar
   154    36    34   ar
   155    36    35   ar
   156    18    19    1
   157    34    32   ar
   158    35    33   ar
   159    32    33   ar
   160    32    31    1
   161    31    28    1
   162    28    27    1
   163    28    29    1
   164    30    29    2
