@<TRIPOS>MOLECULE
tmp/1ojcB01.pdb
 133 128 0 0 0
SMALL
GASTEIGER

@<TRIPOS>ATOM
      1  N         24.4290  118.4450   16.1320 N.3    55  GLY55      -0.1210
      2  CA        24.5480  119.8830   15.9540 C.3    55  GLY55       0.1956
      3  C         23.1890  120.5120   15.7150 C.2    55  GLY55       0.2612
      4  O         22.2170  120.1280   16.3680 O.2    55  GLY55      -0.2717
      5  N         23.1180  121.4650   14.7830 N.am   56  GLY56      -0.1942
      6  CA        21.8620  122.0810   14.3820 C.3    56  GLY56       0.2014
      7  C         20.7650  121.0780   14.0630 C.2    56  GLY56       0.2640
      8  O         21.0060  120.0890   13.3650 O.2    56  GLY56      -0.2714
      9  N         19.5560  121.3450   14.5550 N.am   57  SER57      -0.1935
     10  CA        18.4860  120.3520   14.5390 C.3    57  SER57       0.2055
     11  C         17.0660  120.8980   14.3290 C.2    57  SER57       0.2643
     12  O         16.2870  120.3290   13.5620 O.2    57  SER57      -0.2714
     13  CB        18.5290  119.5370   15.8370 C.3    57  SER57       0.2130
     14  OG        17.7250  118.3750   15.7240 O.3    57  SER57      -0.2179
     15  N         16.7310  121.9780   15.0260 N.am   58  TYR58      -0.1973
     16  CA        15.3620  122.4800   15.0670 C.3    58  TYR58       0.1639
     17  C         15.0580  123.5040   13.9750 C.2    58  TYR58       0.2290
     18  O         15.9000  124.3440   13.6200 O.2    58  TYR58      -0.2864
     19  CB        15.0220  123.0400   16.4590 C.3    58  TYR58       0.0560
     20  CG        15.2620  122.0350   17.5610 C.ar   58  TYR58      -0.0198
     21  CD1       16.4180  122.0910   18.3330 C.ar   58  TYR58      -0.0009
     22  CD2       14.3550  121.0020   17.8020 C.ar   58  TYR58      -0.0009
     23  CE1       16.6600  121.1570   19.3230 C.ar   58  TYR58       0.0417
     24  CE2       14.5890  120.0600   18.7950 C.ar   58  TYR58       0.0417
     25  CZ        15.7430  120.1430   19.5450 C.ar   58  TYR58       0.1957
     26  OH        15.9850  119.2220   20.5170 O.3    58  TYR58      -0.2866
     27  N         21.2240  130.3520   26.7430 N.3   169  LEU169     -0.1231
     28  CA        20.5850  129.3880   25.8550 C.3   169  LEU169      0.1693
     29  C         20.4950  129.8360   24.4000 C.2   169  LEU169      0.2592
     30  O         20.7070  129.0250   23.5030 O.2   169  LEU169     -0.2718
     31  CB        19.1970  129.0310   26.3850 C.3   169  LEU169      0.0284
     32  CG        18.3400  127.9970   25.6550 C.3   169  LEU169      0.0019
     33  CD1       19.0430  126.6490   25.5160 C.3   169  LEU169      0.0001
     34  CD2       16.9900  127.8740   26.3700 C.3   169  LEU169      0.0001
     35  N         20.1780  131.1110   24.1680 N.am  170  CYS170     -0.1970
     36  CA        20.0510  131.6380   22.8090 C.3   170  CYS170      0.1712
     37  C         21.3820  131.7230   22.0810 C.2   170  CYS170      0.2296
     38  O         21.4440  131.4470   20.8840 O.2   170  CYS170     -0.2864
     39  CB        19.3880  133.0170   22.8010 C.3   170  CYS170      0.0983
     40  SG        17.6370  132.9680   23.2190 S.3   170  CYS170     -0.0798
     41  N         11.5620  133.1330   19.4360 N.3   196  ILE196     -0.1231
     42  CA        12.8560  132.4850   19.6570 C.3   196  ILE196      0.1692
     43  C         12.8390  131.3970   20.7510 C.2   196  ILE196      0.2591
     44  O         13.5750  130.4160   20.6460 O.2   196  ILE196     -0.2718
     45  CB        13.9980  133.5530   19.8670 C.3   196  ILE196      0.0266
     46  CG1       15.3690  132.9840   19.4980 C.3   196  ILE196      0.0019
     47  CG2       14.0140  134.1060   21.2880 C.3   196  ILE196      0.0020
     48  CD1       16.4770  134.0400   19.4030 C.3   196  ILE196      0.0001
     49  N         11.9910  131.5450   21.7700 N.am  197  ILE197     -0.1980
     50  CA        11.9550  130.5770   22.8830 C.3   197  ILE197      0.1595
     51  C         10.8790  129.4980   22.7390 C.2   197  ILE197      0.2287
     52  O         10.8790  128.5040   23.4750 O.2   197  ILE197     -0.2864
     53  CB        11.8210  131.2840   24.2740 C.3   197  ILE197      0.0276
     54  CG1       10.4990  132.0490   24.3900 C.3   197  ILE197      0.0022
     55  CG2       12.9760  132.2370   24.5070 C.3   197  ILE197      0.0022
     56  CD1        9.5090  131.4420   25.3410 C.3   197  ILE197      0.0001
     57  N         11.8220  126.0530   17.9180 N.3   204  GLN204     -0.1245
     58  CA        12.0500  124.6560   18.2800 C.3   204  GLN204      0.1566
     59  C         10.8530  123.7560   17.9650 C.2   204  GLN204      0.2260
     60  O         10.7360  122.6740   18.5340 O.2   204  GLN204     -0.2867
     61  CB        12.4330  124.5290   19.7660 C.3   204  GLN204      0.0367
     62  CG        13.8520  124.9780   20.0970 C.3   204  GLN204      0.0905
     63  CD        14.0160  126.4980   20.0140 C.2   204  GLN204      0.2608
     64  OE1       14.8340  127.0010   19.2280 O.2   204  GLN204     -0.2717
     65  NE2       13.2220  127.2280   20.8030 N.am  204  GLN204     -0.0878
     66  N         26.1770  119.3560   23.3190 N.3   294  LYS294     -0.1245
     67  CA        24.8570  118.7790   23.1350 C.3   294  LYS294      0.1561
     68  C         24.8920  117.3250   23.5950 C.2   294  LYS294      0.2260
     69  O         25.7270  116.5540   23.1370 O.2   294  LYS294     -0.2867
     70  CB        24.4320  118.8780   21.6680 C.3   294  LYS294      0.0271
     71  CG        23.0070  118.4120   21.3880 C.3   294  LYS294      0.0035
     72  CD        22.5960  118.7860   19.9760 C.3   294  LYS294      0.0206
     73  CE        21.2790  118.1430   19.5940 C.3   294  LYS294      0.1093
     74  NZ        20.3020  119.1670   19.1600 N.3   294  LYS294     -0.1314
     75  N         18.6700  123.4550   29.9610 N.3   324  TYR324     -0.1241
     76  CA        17.5330  123.2910   29.0510 C.3   324  TYR324      0.1605
     77  C         17.5100  121.9300   28.3600 C.2   324  TYR324      0.2264
     78  O         18.5290  121.4570   27.8680 O.2   324  TYR324     -0.2867
     79  CB        17.5270  124.4020   27.9890 C.3   324  TYR324      0.0534
     80  CG        16.2410  124.5130   27.1940 C.ar  324  TYR324     -0.0201
     81  CD1       15.1050  125.1060   27.7490 C.ar  324  TYR324     -0.0009
     82  CD2       16.1670  124.0500   25.8790 C.ar  324  TYR324     -0.0009
     83  CE1       13.9280  125.2320   27.0200 C.ar  324  TYR324      0.0417
     84  CE2       14.9960  124.1660   25.1420 C.ar  324  TYR324      0.0417
     85  CZ        13.8780  124.7560   25.7190 C.ar  324  TYR324      0.1957
     86  OH        12.7120  124.8720   24.9920 O.3   324  TYR324     -0.2866
     87  N         14.8610  119.0920   25.8760 N.3   326  LEU326     -0.1245
     88  CA        13.6590  118.7850   25.1210 C.3   326  LEU326      0.1561
     89  C         13.5280  117.2690   24.9670 C.2   326  LEU326      0.2260
     90  O         14.5170  116.5340   25.0350 O.2   326  LEU326     -0.2867
     91  CB        13.6960  119.4600   23.7450 C.3   326  LEU326      0.0270
     92  CG        13.5750  120.9880   23.6560 C.3   326  LEU326      0.0019
     93  CD1       14.1430  121.4860   22.3410 C.3   326  LEU326      0.0001
     94  CD2       12.1270  121.4670   23.8380 C.3   326  LEU326      0.0001
     95  N         21.3390  120.7530   26.7210 N.3   341  PHE341     -0.1241
     96  CA        22.4620  121.6220   26.3770 C.3   341  PHE341      0.1605
     97  C         23.2660  121.9760   27.6220 C.2   341  PHE341      0.2264
     98  O         22.6950  122.4320   28.6180 O.2   341  PHE341     -0.2867
     99  CB        21.9660  122.9400   25.7640 C.3   341  PHE341      0.0534
    100  CG        21.4310  122.8190   24.3630 C.ar  341  PHE341     -0.0203
    101  CD1       20.1820  123.3450   24.0500 C.ar  341  PHE341     -0.0042
    102  CD2       22.1780  122.2070   23.3530 C.ar  341  PHE341     -0.0042
    103  CE1       19.6740  123.2590   22.7620 C.ar  341  PHE341     -0.0003
    104  CE2       21.6750  122.1090   22.0560 C.ar  341  PHE341     -0.0003
    105  CZ        20.4200  122.6400   21.7580 C.ar  341  PHE341     -0.0000
    106  N         26.4000  127.8690   19.1090 N.3   396  TYR396     -0.1241
    107  CA        25.8100  127.6610   17.7840 C.3   396  TYR396      0.1605
    108  C         26.4290  128.5850   16.7570 C.2   396  TYR396      0.2264
    109  O         26.5940  128.2150   15.5870 O.2   396  TYR396     -0.2867
    110  CB        24.3010  127.9220   17.7950 C.3   396  TYR396      0.0534
    111  CG        23.5840  127.5790   19.0790 C.ar  396  TYR396     -0.0201
    112  CD1       23.6960  126.3070   19.6570 C.ar  396  TYR396     -0.0009
    113  CD2       22.7660  128.5190   19.7070 C.ar  396  TYR396     -0.0009
    114  CE1       23.0320  126.0000   20.8370 C.ar  396  TYR396      0.0417
    115  CE2       22.1000  128.2210   20.8830 C.ar  396  TYR396      0.0417
    116  CZ        22.2380  126.9590   21.4430 C.ar  396  TYR396      0.1957
    117  OH        21.5750  126.6470   22.6050 O.3   396  TYR396     -0.2866
    118  N         22.5380  132.7790   12.5350 N.3   432  GLY432     -0.1210
    119  CA        22.9180  131.8130   13.5520 C.3   432  GLY432      0.1956
    120  C         22.1650  130.4910   13.4640 C.2   432  GLY432      0.2611
    121  O         22.5020  129.5530   14.1760 O.2   432  GLY432     -0.2717
    122  N         21.1520  130.4280   12.6010 N.am  433  TYR433     -0.1976
    123  CA        20.3640  129.2130   12.3730 C.3   433  TYR433      0.1639
    124  C         20.6000  128.6450   10.9690 C.2   433  TYR433      0.2290
    125  O         21.2220  129.2930   10.1230 O.2   433  TYR433     -0.2864
    126  CB        18.8650  129.4910   12.5830 C.3   433  TYR433      0.0560
    127  CG        18.4780  129.8230   14.0100 C.ar  433  TYR433     -0.0198
    128  CD1       18.8590  131.0300   14.5940 C.ar  433  TYR433     -0.0009
    129  CD2       17.7230  128.9320   14.7750 C.ar  433  TYR433     -0.0009
    130  CE1       18.5090  131.3460   15.8990 C.ar  433  TYR433      0.0417
    131  CE2       17.3710  129.2360   16.0970 C.ar  433  TYR433      0.0417
    132  CZ        17.7660  130.4480   16.6450 C.ar  433  TYR433      0.1957
    133  OH        17.4210  130.7770   17.9330 O.3   433  TYR433     -0.2866
@<TRIPOS>BOND
     1   125   124    2
     2   124   123    1
     3   123   126    1
     4   123   122    1
     5   118   119    1
     6   126   127    1
     7   122   120   am
     8     8     7    2
     9   120   119    1
    10   120   121    2
    11    12    11    2
    12    18    17    2
    13    17    16    1
    14   127   128   ar
    15   127   129   ar
    16     7     6    1
    17     7     9   am
    18    11    10    1
    19    11    15   am
    20     6     5    1
    21    10     9    1
    22    10    13    1
    23   128   130   ar
    24   129   131   ar
    25     5     3   am
    26    15    16    1
    27    16    19    1
    28   109   108    2
    29     3     2    1
    30     3     4    2
    31    14    13    1
    32   130   132   ar
    33     2     1    1
    34   131   132   ar
    35    19    20    1
    36   132   133    1
    37   108   107    1
    38    20    22   ar
    39    20    21   ar
    40   107   110    1
    41   107   106    1
    42   110   111    1
    43    22    24   ar
    44    57    58    1
    45    59    58    1
    46    59    60    2
    47    58    61    1
    48    21    23   ar
    49    24    25   ar
    50   111   112   ar
    51   111   113   ar
    52    74    73    1
    53    64    63    2
    54    23    25   ar
    55    48    46    1
    56    41    42    1
    57    46    45    1
    58    25    26    1
    59    73    72    1
    60   112   114   ar
    61    42    45    1
    62    42    43    1
    63   113   115   ar
    64    61    62    1
    65    45    47    1
    66    72    71    1
    67    63    62    1
    68    63    65   am
    69    44    43    2
    70    43    49   am
    71   114   116   ar
    72   115   116   ar
    73    38    37    2
    74    71    70    1
    75   116   117    1
    76    70    67    1
    77   105   104   ar
    78   105   103   ar
    79    49    50    1
    80   104   102   ar
    81    37    36    1
    82    93    92    1
    83    51    50    1
    84    51    52    2
    85   103   101   ar
    86    39    36    1
    87    39    40    1
    88    36    35    1
    89    50    53    1
    90    67    66    1
    91    67    68    1
    92    69    68    2
    93   102   100   ar
    94    30    29    2
    95    92    91    1
    96    92    94    1
    97    91    88    1
    98   101   100   ar
    99    35    29   am
   100    53    54    1
   101    53    55    1
   102   100    99    1
   103    54    56    1
   104    29    28    1
   105    89    90    2
   106    89    88    1
   107    86    85    1
   108    88    87    1
   109    84    85   ar
   110    84    82   ar
   111    33    32    1
   112    32    34    1
   113    32    31    1
   114    85    83   ar
   115    99    96    1
   116    28    31    1
   117    28    27    1
   118    82    80   ar
   119    96    95    1
   120    96    97    1
   121    83    81   ar
   122    80    81   ar
   123    80    79    1
   124    97    98    2
   125    78    77    2
   126    79    76    1
   127    77    76    1
   128    76    75    1
