@<TRIPOS>MOLECULE
tmp/1ojdI01.pdb
 180 178 0 0 0
SMALL
GASTEIGER

@<TRIPOS>ATOM
      1  N         28.8730   95.8690  107.8540 N.3    57  TYR57      -0.1241
      2  CA        27.5520   96.2630  108.3780 C.3    57  TYR57       0.1605
      3  C         26.8740   95.1570  109.1690 C.2    57  TYR57       0.2264
      4  O         27.0150   93.9910  108.8650 O.2    57  TYR57      -0.2867
      5  CB        26.6170   96.7590  107.2480 C.3    57  TYR57       0.0534
      6  CG        27.2690   97.8120  106.3800 C.ar   57  TYR57      -0.0201
      7  CD1       28.0090   97.4570  105.2590 C.ar   57  TYR57      -0.0009
      8  CD2       27.1990   99.1590  106.7190 C.ar   57  TYR57      -0.0009
      9  CE1       28.6300   98.3890  104.5020 C.ar   57  TYR57       0.0417
     10  CE2       27.8490  100.1040  105.9450 C.ar   57  TYR57       0.0417
     11  CZ        28.5610   99.6900  104.8420 C.ar   57  TYR57       0.1957
     12  OH        29.2150  100.5950  104.0680 O.3    57  TYR57      -0.2866
     13  N         12.9990  102.6580  101.6290 N.3    99  PRO99      -0.2102
     14  CA        13.9990  101.6790  101.1600 C.3    99  PRO99       0.1504
     15  C         14.0870  101.5500   99.6590 C.2    99  PRO99       0.2576
     16  O         15.1680  101.2800   99.1550 O.2    99  PRO99      -0.2718
     17  CB        13.5080  100.3490  101.7510 C.3    99  PRO99       0.0282
     18  CG        12.3870  100.7500  102.7120 C.3    99  PRO99       0.0208
     19  CD        11.7860  102.0170  102.1570 C.3    99  PRO99       0.0893
     20  N         12.9540  101.7150   98.9810 N.am  100  PHE100     -0.1963
     21  CA        12.8290  101.4490   97.5500 C.3   100  PHE100      0.1756
     22  C         12.6650  102.7730   96.8210 C.2   100  PHE100      0.2461
     23  O         11.8690  103.6240   97.2360 O.2   100  PHE100     -0.2730
     24  CB        11.5890  100.6020   97.2530 C.3   100  PHE100      0.0574
     25  CG        11.5840   99.2270   97.8960 C.ar  100  PHE100     -0.0200
     26  CD1       11.0290   99.0190   99.1710 C.ar  100  PHE100     -0.0042
     27  CD2       12.0690   98.1310   97.2070 C.ar  100  PHE100     -0.0042
     28  CE1       10.9950   97.7560   99.7510 C.ar  100  PHE100     -0.0003
     29  CE2       12.0240   96.8650   97.7810 C.ar  100  PHE100     -0.0003
     30  CZ        11.4810   96.6840   99.0620 C.ar  100  PHE100     -0.0000
     31  N         13.3920  102.9490   95.7220 N.am  101  PRO101     -0.2727
     32  CA        13.2460  104.1500   94.8910 C.3   101  PRO101      0.1402
     33  C         11.8770  104.1080   94.2870 C.2   101  PRO101      0.2269
     34  O         11.4800  103.0310   93.8650 O.2   101  PRO101     -0.2865
     35  CB        14.2940  103.9670   93.7970 C.3   101  PRO101      0.0296
     36  CG        15.1820  102.9380   94.3160 C.3   101  PRO101      0.0237
     37  CD        14.3810  102.0130   95.1750 C.3   101  PRO101      0.0939
     38  N          9.3290   92.1220   93.5920 N.3   116  TRP116     -0.1241
     39  CA         9.8040   92.0320   94.9660 C.3   116  TRP116      0.1605
     40  C          8.9800   91.0370   95.7570 C.2   116  TRP116      0.2264
     41  O          9.4940   90.3160   96.6180 O.2   116  TRP116     -0.2867
     42  CB         9.7620   93.3960   95.6350 C.3   116  TRP116      0.0550
     43  CG        10.7800   94.3760   95.0900 C.ar  116  TRP116      0.0003
     44  CD1       10.5190   95.5290   94.4260 C.ar  116  TRP116      0.0946
     45  CD2       12.2010   94.2860   95.1790 C.ar  116  TRP116      0.0152
     46  NE1       11.6880   96.1680   94.1010 N.ar  116  TRP116     -0.2442
     47  CE2       12.7360   95.4230   94.5460 C.ar  116  TRP116      0.0810
     48  CE3       13.0790   93.3590   95.7350 C.ar  116  TRP116      0.0012
     49  CZ2       14.0940   95.6570   94.4420 C.ar  116  TRP116      0.0191
     50  CZ3       14.4310   93.5900   95.6370 C.ar  116  TRP116      0.0001
     51  CH2       14.9280   94.7330   94.9890 C.ar  116  TRP116      0.0015
     52  N         16.6010   96.8270   87.8090 N.3   161  LEU161     -0.1245
     53  CA        16.7200   96.9550   89.2600 C.3   161  LEU161      0.1561
     54  C         16.9840   95.5890   89.8670 C.2   161  LEU161      0.2260
     55  O         17.8440   95.4470   90.7140 O.2   161  LEU161     -0.2867
     56  CB        15.4490   97.5590   89.8540 C.3   161  LEU161      0.0270
     57  CG        15.5420   98.1180   91.2650 C.3   161  LEU161      0.0019
     58  CD1       16.7840   98.9500   91.4660 C.3   161  LEU161      0.0001
     59  CD2       14.3110   98.9360   91.5760 C.3   161  LEU161      0.0001
     60  N         20.5060   94.5830   89.3880 N.3   164  LEU164     -0.1231
     61  CA        21.3400   95.3120   90.3100 C.3   164  LEU164      0.1693
     62  C         21.2130   94.6970   91.6650 C.2   164  LEU164      0.2592
     63  O         22.1990   94.4250   92.2970 O.2   164  LEU164     -0.2718
     64  CB        20.9360   96.7700   90.3600 C.3   164  LEU164      0.0284
     65  CG        21.9190   97.7920   90.9540 C.3   164  LEU164      0.0019
     66  CD1       21.7360   99.1380   90.3150 C.3   164  LEU164      0.0001
     67  CD2       21.6800   97.9170   92.4440 C.3   164  LEU164      0.0001
     68  N         19.9900   94.4420   92.0920 N.am  165  PHE165     -0.1976
     69  CA        19.7270   93.7290   93.3310 C.3   165  PHE165      0.1639
     70  C         20.5220   92.4220   93.4850 C.2   165  PHE165      0.2290
     71  O         21.0700   92.1390   94.5630 O.2   165  PHE165     -0.2864
     72  CB        18.2500   93.4320   93.4310 C.3   165  PHE165      0.0560
     73  CG        17.8870   92.5540   94.5750 C.ar  165  PHE165     -0.0200
     74  CD1       18.3060   92.8450   95.8550 C.ar  165  PHE165     -0.0042
     75  CD2       17.0990   91.4370   94.3630 C.ar  165  PHE165     -0.0042
     76  CE1       17.9480   92.0450   96.9020 C.ar  165  PHE165     -0.0003
     77  CE2       16.7270   90.6160   95.4070 C.ar  165  PHE165     -0.0003
     78  CZ        17.1480   90.9170   96.6840 C.ar  165  PHE165     -0.0000
     79  N         24.3590   93.1600   93.5880 N.3   168  LEU168     -0.1231
     80  CA        24.7390   93.7340   94.8550 C.3   168  LEU168      0.1693
     81  C         24.7080   92.7670   96.0230 C.2   168  LEU168      0.2592
     82  O         25.5080   92.8890   96.9400 O.2   168  LEU168     -0.2718
     83  CB        23.8640   94.9230   95.1540 C.3   168  LEU168      0.0284
     84  CG        24.2320   95.7850   96.3470 C.3   168  LEU168      0.0019
     85  CD1       25.7290   96.0710   96.4170 C.3   168  LEU168      0.0001
     86  CD2       23.4680   97.0540   96.1940 C.3   168  LEU168      0.0001
     87  N         23.7910   91.8070   95.9910 N.am  169  CYS169     -0.1970
     88  CA        23.6380   90.8170   97.0700 C.3   169  CYS169      0.1712
     89  C         24.6880   89.7520   97.1060 C.2   169  CYS169      0.2296
     90  O         25.0990   89.3270   98.1810 O.2   169  CYS169     -0.2864
     91  CB        22.3100   90.1110   96.9410 C.3   169  CYS169      0.0983
     92  SG        21.0480   91.0510   97.7290 S.3   169  CYS169     -0.0798
     93  N         16.8770   92.6180  103.6620 N.3   195  ILE195     -0.1231
     94  CA        18.2010   92.5340  103.1130 C.3   195  ILE195      0.1692
     95  C         18.5980   93.8450  102.4770 C.2   195  ILE195      0.2591
     96  O         19.7540   94.2170  102.5420 O.2   195  ILE195     -0.2718
     97  CB        18.3440   91.3030  102.1600 C.3   195  ILE195      0.0266
     98  CG1       19.7910   90.8220  102.0860 C.3   195  ILE195      0.0019
     99  CG2       17.7310   91.5650  100.7590 C.3   195  ILE195      0.0020
    100  CD1       19.9450   89.4940  101.3620 C.3   195  ILE195      0.0001
    101  N         17.6550   94.5570  101.8760 N.am  196  ILE196     -0.1980
    102  CA        18.0170   95.7740  101.1440 C.3   196  ILE196      0.1595
    103  C         18.0230   97.0130  102.0070 C.2   196  ILE196      0.2287
    104  O         18.5820   98.0080  101.6090 O.2   196  ILE196     -0.2864
    105  CB        17.1360   96.0080   99.9010 C.3   196  ILE196      0.0276
    106  CG1       15.7130   96.4020  100.3090 C.3   196  ILE196      0.0022
    107  CG2       17.1460   94.7990   99.0200 C.3   196  ILE196      0.0022
    108  CD1       15.0570   97.3290   99.3520 C.3   196  ILE196      0.0001
    109  N         19.7090   95.1870  107.0030 N.3   202  GLY202     -0.1210
    110  CA        21.0430   94.6220  107.0010 C.3   202  GLY202      0.1956
    111  C         22.1820   95.6040  107.1070 C.2   202  GLY202      0.2611
    112  O         23.2770   95.2460  107.5900 O.2   202  GLY202     -0.2717
    113  N         21.9550   96.8320  106.6530 N.am  203  GLN203     -0.1979
    114  CA        23.0410   97.8110  106.6250 C.3   203  GLN203      0.1601
    115  C         22.8250   98.9510  107.6040 C.2   203  GLN203      0.2287
    116  O         23.3240  100.0480  107.3960 O.2   203  GLN203     -0.2864
    117  CB        23.2990   98.3360  105.1980 C.3   203  GLN203      0.0394
    118  CG        23.7790   97.2830  104.1950 C.3   203  GLN203      0.0908
    119  CD        22.6840   96.2790  103.8450 C.2   203  GLN203      0.2608
    120  OE1       22.9000   95.0660  103.9220 O.2   203  GLN203     -0.2717
    121  NE2       21.4990   96.7830  103.4780 N.am  203  GLN203     -0.0878
    122  N         21.9800  104.6780   94.4600 N.3   313  ILE313     -0.1245
    123  CA        21.7460  103.4570   93.6850 C.3   313  ILE313      0.1561
    124  C         21.8870  103.8390   92.1920 C.2   313  ILE313      0.2260
    125  O         21.0900  104.6120   91.6710 O.2   313  ILE313     -0.2867
    126  CB        20.3480  102.9240   93.9940 C.3   313  ILE313      0.0252
    127  CG1       20.2320  102.5520   95.4510 C.3   313  ILE313      0.0019
    128  CG2       20.0620  101.7330   93.1610 C.3   313  ILE313      0.0019
    129  CD1       18.8630  102.6480   95.9610 C.3   313  ILE313      0.0001
    130  N         26.3030  101.0460   93.8670 N.3   323  TYR323     -0.1241
    131  CA        25.7300  101.3120   95.1900 C.3   323  TYR323      0.1605
    132  C         26.7500  101.9460   96.0910 C.2   323  TYR323      0.2264
    133  O         27.8600  101.4200   96.2110 O.2   323  TYR323     -0.2867
    134  CB        25.2930   99.9990   95.8180 C.3   323  TYR323      0.0534
    135  CG        24.4690  100.1330   97.0420 C.ar  323  TYR323     -0.0201
    136  CD1       23.1520  100.5460   96.9680 C.ar  323  TYR323     -0.0009
    137  CD2       24.9980   99.8210   98.2820 C.ar  323  TYR323     -0.0009
    138  CE1       22.3730  100.6560   98.1000 C.ar  323  TYR323      0.0417
    139  CE2       24.2340   99.9310   99.4350 C.ar  323  TYR323      0.0417
    140  CZ        22.9170  100.3420   99.3390 C.ar  323  TYR323      0.1957
    141  OH        22.1430  100.4250  100.4980 O.3   323  TYR323     -0.2866
    142  N         30.9170   99.7590   96.0750 N.3   340  PHE340     -0.1241
    143  CA        31.3510   98.4370   95.6200 C.3   340  PHE340      0.1605
    144  C         31.5240   98.4180   94.1290 C.2   340  PHE340      0.2264
    145  O         30.6880   98.9700   93.4240 O.2   340  PHE340     -0.2867
    146  CB        30.3130   97.3780   95.9610 C.3   340  PHE340      0.0534
    147  CG        30.1490   97.1180   97.4360 C.ar  340  PHE340     -0.0203
    148  CD1       28.9300   97.3610   98.0660 C.ar  340  PHE340     -0.0042
    149  CD2       31.1860   96.6010   98.1740 C.ar  340  PHE340     -0.0042
    150  CE1       28.7800   97.1230   99.3960 C.ar  340  PHE340     -0.0003
    151  CE2       31.0300   96.3780   99.5030 C.ar  340  PHE340     -0.0003
    152  CZ        29.8320   96.6410  100.1160 C.ar  340  PHE340     -0.0000
    153  N         31.4210   88.6140   98.6090 N.3   395  TYR395     -0.1241
    154  CA        31.4110   88.4120  100.0430 C.3   395  TYR395      0.1605
    155  C         31.4220   86.9210  100.4740 C.2   395  TYR395      0.2264
    156  O         32.0060   86.5560  101.5020 O.2   395  TYR395     -0.2867
    157  CB        30.2000   89.1080  100.6730 C.3   395  TYR395      0.0534
    158  CG        29.6070   90.3070   99.9430 C.ar  395  TYR395     -0.0201
    159  CD1       30.3460   91.4830   99.7370 C.ar  395  TYR395     -0.0009
    160  CD2       28.2690   90.2890   99.5200 C.ar  395  TYR395     -0.0009
    161  CE1       29.7710   92.5850   99.1000 C.ar  395  TYR395      0.0417
    162  CE2       27.7030   91.3760   98.8760 C.ar  395  TYR395      0.0417
    163  CZ        28.4480   92.5080   98.6700 C.ar  395  TYR395      0.1957
    164  OH        27.8490   93.5500   98.0310 O.3   395  TYR395     -0.2866
    165  N         26.4120   84.1050  104.8230 N.3   431  GLY431     -0.1210
    166  CA        27.0350   84.9910  103.8490 C.3   431  GLY431      0.1956
    167  C         27.5870   86.1870  104.5700 C.2   431  GLY431      0.2611
    168  O         28.4100   86.9240  104.0340 O.2   431  GLY431     -0.2717
    169  N         27.1440   86.3360  105.8150 N.am  432  TYR432     -0.1976
    170  CA        27.4060   87.5110  106.6130 C.3   432  TYR432      0.1639
    171  C         28.1840   87.0980  107.8480 C.2   432  TYR432      0.2290
    172  O         28.2790   85.9300  108.1490 O.2   432  TYR432     -0.2864
    173  CB        26.0670   88.1170  107.0380 C.3   432  TYR432      0.0560
    174  CG        25.2470   88.7520  105.9280 C.ar  432  TYR432     -0.0198
    175  CD1       24.5310   87.9930  105.0100 C.ar  432  TYR432     -0.0009
    176  CD2       25.1700   90.1200  105.8200 C.ar  432  TYR432     -0.0009
    177  CE1       23.7740   88.6120  103.9990 C.ar  432  TYR432      0.0417
    178  CE2       24.4350   90.7290  104.8450 C.ar  432  TYR432      0.0417
    179  CZ        23.7360   89.9930  103.9420 C.ar  432  TYR432      0.1957
    180  OH        23.0190   90.6970  103.0000 O.3   432  TYR432     -0.2866
@<TRIPOS>BOND
     1    52    53    1
     2    53    56    1
     3    53    54    1
     4    60    61    1
     5    56    57    1
     6    54    55    2
     7    61    64    1
     8    61    62    1
     9    66    65    1
    10    64    65    1
    11    65    67    1
    12    57    58    1
    13    57    59    1
    14    62    68   am
    15    62    63    2
    16   125   124    2
    17    68    69    1
    18   124   123    1
    19   128   126    1
    20    69    72    1
    21    69    70    1
    22   145   144    2
    23    72    73    1
    24    70    71    2
    25    79    80    1
    26    38    39    1
    27   123   126    1
    28   123   122    1
    29    35    36    1
    30    35    32    1
    31    34    33    2
    32   130   131    1
    33   126   127    1
    34    46    44   ar
    35    46    47   ar
    36   144   143    1
    37    33    32    1
    38    36    37    1
    39    75    73   ar
    40    75    77   ar
    41    44    43   ar
    42    49    47   ar
    43    49    51   ar
    44    47    45   ar
    45    73    74   ar
    46    80    83    1
    47    80    81    1
    48    32    31    1
    49    39    42    1
    50    39    40    1
    51    51    50   ar
    52    43    45   ar
    53    43    42    1
    54    83    84    1
    55    37    31    1
    56    45    48   ar
    57   131   134    1
    58   131   132    1
    59    77    78   ar
    60   127   129    1
    61   143   146    1
    62   143   142    1
    63    50    48   ar
    64    31    22   am
    65    40    41    2
    66   134   135    1
    67    74    76   ar
    68   146   147    1
    69    87    81   am
    70    87    88    1
    71    81    82    2
    72   132   133    2
    73    86    84    1
    74    84    85    1
    75    78    76   ar
    76    22    23    2
    77    22    21    1
    78    91    88    1
    79    91    92    1
    80   136   135   ar
    81   136   138   ar
    82   135   137   ar
    83    88    89    1
    84    89    90    2
    85    27    29   ar
    86    27    25   ar
    87    24    21    1
    88    24    25    1
    89   147   148   ar
    90   147   149   ar
    91    21    20    1
    92    29    30   ar
    93    25    26   ar
    94   164   163    1
    95   148   150   ar
    96   138   140   ar
    97   149   151   ar
    98   137   139   ar
    99   153   154    1
   100   163   162   ar
   101   163   161   ar
   102   162   160   ar
   103    20    15   am
   104   107   105    1
   105    30    28   ar
   106   161   159   ar
   107    16    15    2
   108    26    28   ar
   109   140   139   ar
   110   140   141    1
   111   108   106    1
   112   150   152   ar
   113   151   152   ar
   114   160   158   ar
   115    15    14    1
   116   159   158   ar
   117   105   106    1
   118   105   102    1
   119   158   157    1
   120   154   155    1
   121   154   157    1
   122   155   156    2
   123    99    97    1
   124   102   101    1
   125   102   103    1
   126    14    13    1
   127    14    17    1
   128   100    98    1
   129   104   103    2
   130    13    19    1
   131    17    18    1
   132   101    95   am
   133    98    97    1
   134    19    18    1
   135    97    94    1
   136    95    96    2
   137    95    94    1
   138   180   179    1
   139    94    93    1
   140   121   119   am
   141   119   120    2
   142   119   118    1
   143   166   167    1
   144   166   165    1
   145   179   177   ar
   146   179   178   ar
   147   177   175   ar
   148   168   167    2
   149    12    11    1
   150   118   117    1
   151     9    11   ar
   152     9     7   ar
   153   167   169   am
   154    11    10   ar
   155   178   176   ar
   156   175   174   ar
   157   117   114    1
   158     7     6   ar
   159   169   170    1
   160   176   174   ar
   161   174   173    1
   162    10     8   ar
   163     6     8   ar
   164     6     5    1
   165   170   173    1
   166   170   171    1
   167   114   113    1
   168   114   115    1
   169   113   111   am
   170   110   109    1
   171   110   111    1
   172   111   112    2
   173     5     2    1
   174   116   115    2
   175   171   172    2
   176     1     2    1
   177     2     3    1
   178     4     3    2
