@<TRIPOS>MOLECULE
tmp/1ojkB01.pdb
 121 117 0 0 0
SMALL
GASTEIGER

@<TRIPOS>ATOM
      1  N         32.0920   -5.1950   52.3640 N.3   174  GLN174     -0.1245
      2  CA        31.4710   -5.3130   53.6880 C.3   174  GLN174      0.1566
      3  C         29.9550   -5.1560   53.6790 C.2   174  GLN174      0.2260
      4  O         29.3090   -5.4440   54.6950 O.2   174  GLN174     -0.2867
      5  CB        32.0610   -4.3180   54.6800 C.3   174  GLN174      0.0367
      6  CG        33.5910   -4.3800   54.8520 C.3   174  GLN174      0.0905
      7  CD        34.1290   -5.7700   55.1510 C.2   174  GLN174      0.2608
      8  OE1       33.6070   -6.4690   56.0460 O.2   174  GLN174     -0.2717
      9  NE2       35.1650   -6.1840   54.4100 N.am  174  GLN174     -0.0878
     10  N         28.0100   -2.6860   53.8820 N.3   176  PHE176     -0.1241
     11  CA        27.4710   -1.8010   54.9130 C.3   176  PHE176      0.1605
     12  C         26.1770   -1.1030   54.4900 C.2   176  PHE176      0.2264
     13  O         25.9810   -0.7810   53.3170 O.2   176  PHE176     -0.2867
     14  CB        28.4770   -0.7080   55.3020 C.3   176  PHE176      0.0534
     15  CG        29.7530   -1.2180   55.9540 C.ar  176  PHE176     -0.0203
     16  CD1       29.7150   -2.0180   57.0760 C.ar  176  PHE176     -0.0042
     17  CD2       31.0070   -0.7810   55.5240 C.ar  176  PHE176     -0.0042
     18  CE1       30.8840   -2.4330   57.7060 C.ar  176  PHE176     -0.0003
     19  CE2       32.1760   -1.1920   56.1700 C.ar  176  PHE176     -0.0003
     20  CZ        32.1060   -2.0170   57.2590 C.ar  176  PHE176     -0.0000
     21  N         41.8740   -4.8750   47.5130 N.3   198  ASP198     -0.1239
     22  CA        42.6420   -4.0630   48.4690 C.3   198  ASP198      0.1674
     23  C         44.1070   -4.1380   48.0750 C.2   198  ASP198      0.2266
     24  O         44.8670   -5.0050   48.5210 O.2   198  ASP198     -0.2867
     25  CB        42.4180   -4.5010   49.9140 C.3   198  ASP198      0.1410
     26  CG        40.9740   -4.3900   50.3340 C.2   198  ASP198      0.3668
     27  OD1       40.0720   -3.9790   49.5340 O.co2 198  ASP198     -0.2456
     28  OD2       40.6430   -4.7570   51.4550 O.co2 198  ASP198     -0.2456
     29  N         46.5180   -1.8580   52.3110 N.3   201  GLU201     -0.1245
     30  CA        46.0110   -1.4710   53.6380 C.3   201  GLU201      0.1567
     31  C         47.2300   -1.6280   54.5360 C.2   201  GLU201      0.2260
     32  O         47.7680   -2.7220   54.6990 O.2   201  GLU201     -0.2867
     33  CB        44.8810   -2.3950   54.0850 C.3   201  GLU201      0.0388
     34  CG        43.5970   -2.1630   53.3230 C.3   201  GLU201      0.1160
     35  CD        42.5220   -3.1650   53.7020 C.2   201  GLU201      0.3649
     36  OE1       42.5670   -4.2890   53.1660 O.co2 201  GLU201     -0.2457
     37  OE2       41.6570   -2.8360   54.5480 O.co2 201  GLU201     -0.2457
     38  N         49.4300   -5.0670   54.2260 N.3   208  HIS208     -0.1241
     39  CA        48.4450   -6.0870   53.8700 C.3   208  HIS208      0.1621
     40  C         47.9150   -5.8290   52.4570 C.2   208  HIS208      0.2264
     41  O         47.6790   -4.6720   52.0680 O.2   208  HIS208     -0.2867
     42  CB        47.3250   -5.9690   54.9130 C.3   208  HIS208      0.0745
     43  CG        46.1750   -6.9220   54.7540 C.ar  208  HIS208      0.0817
     44  ND1       46.0800   -8.0800   55.4890 N.ar  208  HIS208     -0.2268
     45  CD2       45.0110   -6.8120   54.0740 C.ar  208  HIS208      0.1154
     46  CE1       44.9400   -8.6860   55.2090 C.ar  208  HIS208      0.1986
     47  NE2       44.2610   -7.9300   54.3640 N.ar  208  HIS208     -0.2212
     48  N         38.9580   -9.2480   47.5510 N.3   212  HIS212     -0.1241
     49  CA        37.6780   -9.6060   48.1560 C.3   212  HIS212      0.1621
     50  C         36.6550   -9.7880   47.0240 C.2   212  HIS212      0.2264
     51  O         36.2560   -8.8220   46.4040 O.2   212  HIS212     -0.2867
     52  CB        37.1160   -8.5060   49.0920 C.3   212  HIS212      0.0745
     53  CG        37.9380   -8.1740   50.3060 C.ar  212  HIS212      0.0817
     54  ND1       37.4710   -8.3880   51.5850 N.ar  212  HIS212     -0.2268
     55  CD2       39.1280   -7.5320   50.4440 C.ar  212  HIS212      0.1154
     56  CE1       38.3610   -7.9320   52.4560 C.ar  212  HIS212      0.1986
     57  NE2       39.3840   -7.4190   51.7890 N.ar  212  HIS212     -0.2212
     58  N         33.9140  -10.8370   53.2100 N.3   235  LYS235     -0.1231
     59  CA        34.2710   -9.7940   54.1660 C.3   235  LYS235      0.1693
     60  C         35.7600   -9.8560   54.5300 C.2   235  LYS235      0.2592
     61  O         36.4230   -8.8230   54.6200 O.2   235  LYS235     -0.2718
     62  CB        33.3930   -9.9340   55.4130 C.3   235  LYS235      0.0285
     63  CG        31.9120   -9.5610   55.2010 C.3   235  LYS235      0.0035
     64  CD        31.1740   -9.6440   56.5200 C.3   235  LYS235      0.0206
     65  CE        29.7040   -9.4560   56.4020 C.3   235  LYS235      0.1093
     66  NZ        29.2790   -8.1120   55.9540 N.3   235  LYS235     -0.1314
     67  N         36.3110  -11.0530   54.7220 N.am  236  ASN236     -0.1960
     68  CA        37.6990  -11.1860   55.1730 C.3   236  ASN236      0.1819
     69  C         38.7220  -10.8650   54.1230 C.2   236  ASN236      0.2621
     70  O         39.7320  -10.2140   54.4150 O.2   236  ASN236     -0.2715
     71  CB        37.9750  -12.6050   55.6630 C.3   236  ASN236      0.1195
     72  CG        37.3340  -12.8920   57.0140 C.2   236  ASN236      0.2630
     73  OD1       36.7240  -12.0200   57.6080 O.2   236  ASN236     -0.2716
     74  ND2       37.4680  -14.1350   57.4840 N.am  236  ASN236     -0.0877
     75  N         38.4790  -11.3270   52.9150 N.am  237  GLY237     -0.1954
     76  CA        39.4480  -11.2100   51.8480 C.3   237  GLY237      0.1869
     77  C         40.4740  -12.3090   51.9310 C.2   237  GLY237      0.2309
     78  O         40.5840  -13.0070   52.9590 O.2   237  GLY237     -0.2863
     79  N         43.9780  -12.6390   52.4830 N.3   239  GLY239     -0.1225
     80  CA        44.9940  -11.7260   52.9470 C.3   239  GLY239      0.1811
     81  C         46.4220  -12.1490   52.6880 C.2   239  GLY239      0.2280
     82  O         46.7840  -13.3350   52.8220 O.2   239  GLY239     -0.2866
     83  N         51.7920  -12.7800   58.6660 N.3   244  ARG244     -0.1245
     84  CA        50.8460  -13.9120   58.6620 C.3   244  ARG244      0.1563
     85  C         51.4460  -15.1820   58.0770 C.2   244  ARG244      0.2260
     86  O         50.9750  -16.2830   58.3870 O.2   244  ARG244     -0.2867
     87  CB        49.5590  -13.5540   57.9040 C.3   244  ARG244      0.0307
     88  CG        48.6440  -12.6020   58.6500 C.3   244  ARG244      0.0489
     89  CD        47.3810  -12.3480   57.8800 C.3   244  ARG244      0.2205
     90  NE        46.4710  -11.4940   58.6260 N.pl3 244  ARG244     -0.0865
     91  CZ        45.5840  -11.9100   59.5030 C.cat 244  ARG244      0.5346
     92  NH1       45.4170  -13.2000   59.7680 N.pl3 244  ARG244      0.1354
     93  NH2       44.8280  -11.0150   60.1200 N.pl3 244  ARG244      0.1354
     94  N         41.9850    5.7100   58.1550 N.3   346  TRP346     -0.1241
     95  CA        41.0100    5.4260   59.1950 C.3   346  TRP346      0.1605
     96  C         41.5840    4.6750   60.3820 C.2   346  TRP346      0.2264
     97  O         42.6580    4.0840   60.3050 O.2   346  TRP346     -0.2867
     98  CB        39.7980    4.6970   58.5900 C.3   346  TRP346      0.0550
     99  CG        40.0110    3.3390   57.9630 C.ar  346  TRP346      0.0003
    100  CD1       40.5860    3.0560   56.7480 C.ar  346  TRP346      0.0946
    101  CD2       39.5010    2.0950   58.4630 C.ar  346  TRP346      0.0152
    102  NE1       40.4980    1.7170   56.4990 N.ar  346  TRP346     -0.2442
    103  CE2       39.8400    1.1030   57.5380 C.ar  346  TRP346      0.0810
    104  CE3       38.8010    1.7210   59.6210 C.ar  346  TRP346      0.0012
    105  CZ2       39.4950   -0.2270   57.7260 C.ar  346  TRP346      0.0191
    106  CZ3       38.4730    0.4060   59.8200 C.ar  346  TRP346      0.0001
    107  CH2       38.8320   -0.5540   58.8850 C.ar  346  TRP346      0.0015
    108  N         43.6230   -7.0500   63.1610 N.3   355  TRP355     -0.1241
    109  CA        43.8060   -7.9230   62.0030 C.3   355  TRP355      0.1605
    110  C         44.9110   -7.4310   61.0700 C.2   355  TRP355      0.2264
    111  O         45.4310   -8.1860   60.2530 O.2   355  TRP355     -0.2867
    112  CB        42.4830   -8.0790   61.2060 C.3   355  TRP355      0.0550
    113  CG        41.9870   -6.7620   60.6960 C.ar  355  TRP355      0.0003
    114  CD1       41.1200   -5.8910   61.3080 C.ar  355  TRP355      0.0946
    115  CD2       42.3880   -6.1340   59.4850 C.ar  355  TRP355      0.0152
    116  NE1       40.9530   -4.7700   60.5390 N.ar  355  TRP355     -0.2442
    117  CE2       41.7220   -4.9020   59.4080 C.ar  355  TRP355      0.0810
    118  CE3       43.2350   -6.5040   58.4340 C.ar  355  TRP355      0.0012
    119  CZ2       41.9000   -4.0270   58.3450 C.ar  355  TRP355      0.0191
    120  CZ3       43.3960   -5.6420   57.3790 C.ar  355  TRP355      0.0001
    121  CH2       42.7270   -4.4170   57.3420 C.ar  355  TRP355      0.0015
@<TRIPOS>BOND
     1    51    50    2
     2    50    49    1
     3    21    22    1
     4    48    49    1
     5    23    22    1
     6    23    24    2
     7    49    52    1
     8    22    25    1
     9    52    53    1
    10    27    26   ar
    11    25    26    1
    12    53    55   ar
    13    53    54   ar
    14    26    28   ar
    15    55    57   ar
    16    54    56   ar
    17    57    56   ar
    18    76    77    1
    19    76    75    1
    20    77    78    2
    21    41    40    2
    22    29    30    1
    23     1     2    1
    24    40    39    1
    25    79    80    1
    26    81    82    2
    27    81    80    1
    28    75    69   am
    29    36    35   ar
    30    58    59    1
    31    13    12    2
    32    34    35    1
    33    34    33    1
    34    30    33    1
    35    30    31    1
    36     3     2    1
    37     3     4    2
    38     2     5    1
    39    35    37   ar
    40    39    38    1
    41    39    42    1
    42    10    11    1
    43    45    47   ar
    44    45    43   ar
    45    69    70    2
    46    69    68    1
    47    59    60    1
    48    59    62    1
    49    47    46   ar
    50     9     7   am
    51    12    11    1
    52    60    61    2
    53    60    67   am
    54    31    32    2
    55     5     6    1
    56    67    68    1
    57    43    42    1
    58    43    44   ar
    59     6     7    1
    60    11    14    1
    61     7     8    2
    62    68    71    1
    63    63    62    1
    64    63    64    1
    65    46    44   ar
    66    14    15    1
    67    17    15   ar
    68    17    19   ar
    69    71    72    1
    70    66    65    1
    71    15    16   ar
    72    19    20   ar
    73    65    64    1
    74   102   100   ar
    75   102   103   ar
    76   100    99   ar
    77    72    74   am
    78    72    73    2
    79    16    18   ar
    80    20    18   ar
    81   121   120   ar
    82   121   119   ar
    83   120   118   ar
    84   103   105   ar
    85   103   101   ar
    86   105   107   ar
    87    89    90    1
    88    89    88    1
    89    87    88    1
    90    87    84    1
    91    99   101   ar
    92    99    98    1
    93    85    86    2
    94    85    84    1
    95    94    95    1
    96   119   117   ar
    97   118   115   ar
    98   101   104   ar
    99    98    95    1
   100    90    91    2
   101    84    83    1
   102   107   106   ar
   103    95    96    1
   104   117   115   ar
   105   117   116   ar
   106   115   113   ar
   107    91    92    1
   108    91    93    1
   109   104   106   ar
   110   111   110    2
   111    97    96    2
   112   116   114   ar
   113   113   112    1
   114   113   114   ar
   115   110   109    1
   116   112   109    1
   117   109   108    1
