@<TRIPOS>MOLECULE
tmp/1ojkB00.pdb
 154 147 0 0 0
SMALL
GASTEIGER

@<TRIPOS>ATOM
      1  N         25.6030    6.6140   59.3780 N.3    53  TRP53      -0.1241
      2  CA        26.1850    5.3760   58.8520 C.3    53  TRP53       0.1605
      3  C         25.5920    4.1800   59.6010 C.2    53  TRP53       0.2264
      4  O         25.4430    4.2400   60.8450 O.2    53  TRP53      -0.2867
      5  CB        27.6930    5.4190   59.0320 C.3    53  TRP53       0.0550
      6  CG        28.4420    4.2880   58.4560 C.ar   53  TRP53       0.0003
      7  CD1       28.8320    4.1340   57.1600 C.ar   53  TRP53       0.0946
      8  CD2       28.9000    3.1230   59.1520 C.ar   53  TRP53       0.0152
      9  NE1       29.5260    2.9570   57.0110 N.ar   53  TRP53      -0.2442
     10  CE2       29.5920    2.3230   58.2240 C.ar   53  TRP53       0.0810
     11  CE3       28.8260    2.6840   60.4830 C.ar   53  TRP53       0.0012
     12  CZ2       30.1660    1.1030   58.5690 C.ar   53  TRP53       0.0191
     13  CZ3       29.4050    1.4810   60.8260 C.ar   53  TRP53       0.0001
     14  CH2       30.0580    0.6970   59.8690 C.ar   53  TRP53       0.0015
     15  N         39.0880   11.7580   58.8760 N.3   105  SER105     -0.1217
     16  CA        39.2390   10.4050   58.3750 C.3   105  SER105      0.1889
     17  C         38.7990   10.3190   56.9080 C.2   105  SER105      0.2288
     18  O         37.9130    9.5320   56.5610 O.2   105  SER105     -0.2866
     19  CB        38.4320    9.4460   59.2380 C.3   105  SER105      0.2089
     20  OG        38.7650    8.0800   59.0090 O.3   105  SER105     -0.2183
     21  N         37.9720    9.6930   52.9960 N.3   107  ARG107     -0.1245
     22  CA        37.9860    8.7130   51.9240 C.3   107  ARG107      0.1563
     23  C         37.6140    9.4160   50.6280 C.2   107  ARG107      0.2260
     24  O         36.5910   10.1120   50.5340 O.2   107  ARG107     -0.2867
     25  CB        36.9740    7.5910   52.1970 C.3   107  ARG107      0.0307
     26  CG        36.8990    6.5920   51.0600 C.3   107  ARG107      0.0489
     27  CD        36.0450    5.3860   51.3680 C.3   107  ARG107      0.2205
     28  NE        34.6100    5.6660   51.2750 N.pl3 107  ARG107     -0.0865
     29  CZ        33.7580    5.6970   52.3030 C.cat 107  ARG107      0.5346
     30  NH1       34.1530    5.4950   53.5580 N.pl3 107  ARG107      0.1354
     31  NH2       32.4810    5.9710   52.0900 N.pl3 107  ARG107      0.1354
     32  N         45.0300    2.5950   59.5750 N.3   142  ASN142     -0.1240
     33  CA        44.9370    1.9480   58.2590 C.3   142  ASN142      0.1653
     34  C         44.9590    3.0470   57.1960 C.2   142  ASN142      0.2266
     35  O         44.0360    3.8490   57.1020 O.2   142  ASN142     -0.2867
     36  CB        43.6750    1.1010   58.1780 C.3   142  ASN142      0.1155
     37  CG        43.5480    0.3020   56.8880 C.2   142  ASN142      0.2627
     38  OD1       44.0620    0.6930   55.8350 O.2   142  ASN142     -0.2716
     39  ND2       42.7790   -0.7780   56.9490 N.am  142  ASN142     -0.0877
     40  N         44.7230    3.2510   53.3160 N.3   144  ALA144     -0.1245
     41  CA        44.2040    2.3460   52.3200 C.3   144  ALA144      0.1562
     42  C         44.2450    2.9690   50.9210 C.2   144  ALA144      0.2260
     43  O         44.0670    4.1910   50.7360 O.2   144  ALA144     -0.2867
     44  CB        42.7980    1.9360   52.6800 C.3   144  ALA144      0.0290
     45  N         42.7370    1.2520   47.2990 N.3   146  TYR146     -0.1241
     46  CA        42.0080    0.0790   46.8880 C.3   146  TYR146      0.1605
     47  C         41.0320    0.3770   45.7700 C.2   146  TYR146      0.2264
     48  O         40.8150    1.5290   45.4300 O.2   146  TYR146     -0.2867
     49  CB        41.3080   -0.5710   48.0830 C.3   146  TYR146      0.0534
     50  CG        40.2360    0.2500   48.7590 C.ar  146  TYR146     -0.0201
     51  CD1       40.5590    1.3000   49.6040 C.ar  146  TYR146     -0.0009
     52  CD2       38.9000   -0.0600   48.5960 C.ar  146  TYR146     -0.0009
     53  CE1       39.5860    2.0140   50.2490 C.ar  146  TYR146      0.0417
     54  CE2       37.9140    0.6380   49.2600 C.ar  146  TYR146      0.0417
     55  CZ        38.2730    1.6810   50.0820 C.ar  146  TYR146      0.1957
     56  OH        37.3070    2.3810   50.7450 O.3   146  TYR146     -0.2866
     57  N         29.4480    4.8320   46.4190 N.3   170  TYR170     -0.1241
     58  CA        30.3940    3.9790   47.1240 C.3   170  TYR170      0.1605
     59  C         29.7940    2.6230   47.5000 C.2   170  TYR170      0.2264
     60  O         28.6140    2.5310   47.8870 O.2   170  TYR170     -0.2867
     61  CB        30.9090    4.6530   48.4090 C.3   170  TYR170      0.0534
     62  CG        31.9560    3.7930   49.0920 C.ar  170  TYR170     -0.0201
     63  CD1       33.2150    3.6130   48.5030 C.ar  170  TYR170     -0.0009
     64  CD2       31.6850    3.1110   50.2880 C.ar  170  TYR170     -0.0009
     65  CE1       34.1830    2.7870   49.0860 C.ar  170  TYR170      0.0417
     66  CE2       32.6520    2.2730   50.8740 C.ar  170  TYR170      0.0417
     67  CZ        33.8950    2.1100   50.2500 C.ar  170  TYR170      0.1957
     68  OH        34.8570    1.3110   50.8110 O.3   170  TYR170     -0.2866
     69  N         31.4920   -1.5660   48.9130 N.3   172  ASP172     -0.1225
     70  CA        32.6460   -2.4280   49.0980 C.3   172  ASP172      0.1805
     71  C         32.1980   -3.7960   49.5850 C.2   172  ASP172      0.2598
     72  O         31.0020   -4.0740   49.7030 O.2   172  ASP172     -0.2718
     73  CB        33.6830   -1.8070   50.0470 C.3   172  ASP172      0.1424
     74  CG        33.1620   -1.5390   51.4330 C.2   172  ASP172      0.3668
     75  OD1       32.3250   -2.3290   51.9200 O.co2 172  ASP172     -0.2456
     76  OD2       33.6330   -0.5770   52.1130 O.co2 172  ASP172     -0.2456
     77  N         33.1470   -4.6540   49.8840 N.am  173  ALA173     -0.1966
     78  CA        32.8460   -6.0400   50.1940 C.3   173  ALA173      0.1728
     79  C         32.2550   -6.2560   51.5820 C.2   173  ALA173      0.2616
     80  O         31.9770   -7.4130   51.9400 O.2   173  ALA173     -0.2715
     81  CB        34.0990   -6.8610   50.0400 C.3   173  ALA173      0.0334
     82  N         32.0920   -5.1950   52.3640 N.am  174  GLN174     -0.1977
     83  CA        31.4710   -5.3130   53.6880 C.3   174  GLN174      0.1601
     84  C         29.9550   -5.1560   53.6790 C.2   174  GLN174      0.2287
     85  O         29.3090   -5.4440   54.6950 O.2   174  GLN174     -0.2864
     86  CB        32.0610   -4.3180   54.6800 C.3   174  GLN174      0.0394
     87  CG        33.5910   -4.3800   54.8520 C.3   174  GLN174      0.0908
     88  CD        34.1290   -5.7700   55.1510 C.2   174  GLN174      0.2608
     89  OE1       33.6070   -6.4690   56.0460 O.2   174  GLN174     -0.2717
     90  NE2       35.1650   -6.1840   54.4100 N.am  174  GLN174     -0.0878
     91  N         28.0100   -2.6860   53.8820 N.3   176  PHE176     -0.1241
     92  CA        27.4710   -1.8010   54.9130 C.3   176  PHE176      0.1605
     93  C         26.1770   -1.1030   54.4900 C.2   176  PHE176      0.2264
     94  O         25.9810   -0.7810   53.3170 O.2   176  PHE176     -0.2867
     95  CB        28.4770   -0.7080   55.3020 C.3   176  PHE176      0.0534
     96  CG        29.7530   -1.2180   55.9540 C.ar  176  PHE176     -0.0203
     97  CD1       29.7150   -2.0180   57.0760 C.ar  176  PHE176     -0.0042
     98  CD2       31.0070   -0.7810   55.5240 C.ar  176  PHE176     -0.0042
     99  CE1       30.8840   -2.4330   57.7060 C.ar  176  PHE176     -0.0003
    100  CE2       32.1760   -1.1920   56.1700 C.ar  176  PHE176     -0.0003
    101  CZ        32.1060   -2.0170   57.2590 C.ar  176  PHE176     -0.0000
    102  N         35.8820   -5.7990   45.8410 N.3   196  SER196     -0.1217
    103  CA        36.8960   -4.8420   46.3020 C.3   196  SER196      0.1889
    104  C         38.2540   -5.5010   46.1880 C.2   196  SER196      0.2288
    105  O         38.4330   -6.6110   46.6560 O.2   196  SER196     -0.2866
    106  CB        36.7030   -4.4280   47.7620 C.3   196  SER196      0.2089
    107  OG        35.5180   -3.7220   47.9680 O.3   196  SER196     -0.2183
    108  N         41.8740   -4.8750   47.5130 N.3   198  ASP198     -0.1239
    109  CA        42.6420   -4.0630   48.4690 C.3   198  ASP198      0.1674
    110  C         44.1070   -4.1380   48.0750 C.2   198  ASP198      0.2266
    111  O         44.8670   -5.0050   48.5210 O.2   198  ASP198     -0.2867
    112  CB        42.4180   -4.5010   49.9140 C.3   198  ASP198      0.1410
    113  CG        40.9740   -4.3900   50.3340 C.2   198  ASP198      0.3668
    114  OD1       40.0720   -3.9790   49.5340 O.co2 198  ASP198     -0.2456
    115  OD2       40.6430   -4.7570   51.4550 O.co2 198  ASP198     -0.2456
    116  N         46.5180   -1.8580   52.3110 N.3   201  GLU201     -0.1245
    117  CA        46.0110   -1.4710   53.6380 C.3   201  GLU201      0.1567
    118  C         47.2300   -1.6280   54.5360 C.2   201  GLU201      0.2260
    119  O         47.7680   -2.7220   54.6990 O.2   201  GLU201     -0.2867
    120  CB        44.8810   -2.3950   54.0850 C.3   201  GLU201      0.0388
    121  CG        43.5970   -2.1630   53.3230 C.3   201  GLU201      0.1160
    122  CD        42.5220   -3.1650   53.7020 C.2   201  GLU201      0.3649
    123  OE1       42.5670   -4.2890   53.1660 O.co2 201  GLU201     -0.2457
    124  OE2       41.6570   -2.8360   54.5480 O.co2 201  GLU201     -0.2457
    125  N         38.9580   -9.2480   47.5510 N.3   212  HIS212     -0.1241
    126  CA        37.6780   -9.6060   48.1560 C.3   212  HIS212      0.1621
    127  C         36.6550   -9.7880   47.0240 C.2   212  HIS212      0.2264
    128  O         36.2560   -8.8220   46.4040 O.2   212  HIS212     -0.2867
    129  CB        37.1160   -8.5060   49.0920 C.3   212  HIS212      0.0745
    130  CG        37.9380   -8.1740   50.3060 C.ar  212  HIS212      0.0817
    131  ND1       37.4710   -8.3880   51.5850 N.ar  212  HIS212     -0.2268
    132  CD2       39.1280   -7.5320   50.4440 C.ar  212  HIS212      0.1154
    133  CE1       38.3610   -7.9320   52.4560 C.ar  212  HIS212      0.1986
    134  NE2       39.3840   -7.4190   51.7890 N.ar  212  HIS212     -0.2212
    135  N         42.0090    6.2040   51.4030 N.3   344  SER344     -0.1217
    136  CA        41.4570    6.6420   52.7090 C.3   344  SER344      0.1889
    137  C         42.4450    6.4700   53.8620 C.2   344  SER344      0.2288
    138  O         43.5050    5.8590   53.7460 O.2   344  SER344     -0.2866
    139  CB        40.1860    5.8570   53.0220 C.3   344  SER344      0.2089
    140  OG        40.5070    4.5190   53.3520 O.3   344  SER344     -0.2183
    141  N         41.9850    5.7100   58.1550 N.3   346  TRP346     -0.1241
    142  CA        41.0100    5.4260   59.1950 C.3   346  TRP346      0.1605
    143  C         41.5840    4.6750   60.3820 C.2   346  TRP346      0.2264
    144  O         42.6580    4.0840   60.3050 O.2   346  TRP346     -0.2867
    145  CB        39.7980    4.6970   58.5900 C.3   346  TRP346      0.0550
    146  CG        40.0110    3.3390   57.9630 C.ar  346  TRP346      0.0003
    147  CD1       40.5860    3.0560   56.7480 C.ar  346  TRP346      0.0946
    148  CD2       39.5010    2.0950   58.4630 C.ar  346  TRP346      0.0152
    149  NE1       40.4980    1.7170   56.4990 N.ar  346  TRP346     -0.2442
    150  CE2       39.8400    1.1030   57.5380 C.ar  346  TRP346      0.0810
    151  CE3       38.8010    1.7210   59.6210 C.ar  346  TRP346      0.0012
    152  CZ2       39.4950   -0.2270   57.7260 C.ar  346  TRP346      0.0191
    153  CZ3       38.4730    0.4060   59.8200 C.ar  346  TRP346      0.0001
    154  CH2       38.8320   -0.5540   58.8850 C.ar  346  TRP346      0.0015
@<TRIPOS>BOND
     1    48    47    2
     2    47    46    1
     3   102   103    1
     4   104   103    1
     5   104   105    2
     6   103   106    1
     7   128   127    2
     8    57    58    1
     9    46    45    1
    10    46    49    1
    11   127   126    1
    12    58    59    1
    13    58    61    1
    14    59    60    2
    15   108   109    1
    16   125   126    1
    17   106   107    1
    18   110   109    1
    19   110   111    2
    20    49    50    1
    21   126   129    1
    22    61    62    1
    23   109   112    1
    24    63    65   ar
    25    63    62   ar
    26    52    50   ar
    27    52    54   ar
    28    50    51   ar
    29    69    70    1
    30    65    67   ar
    31    62    64   ar
    32   129   130    1
    33    70    71    1
    34    70    73    1
    35    54    55   ar
    36   114   113   ar
    37    71    72    2
    38    71    77   am
    39    51    53   ar
    40    77    78    1
    41   112   113    1
    42    81    78    1
    43    73    74    1
    44    55    53   ar
    45    55    56    1
    46    78    79    1
    47    67    68    1
    48    67    66   ar
    49    64    66   ar
    50   130   132   ar
    51   130   131   ar
    52   113   115   ar
    53   132   134   ar
    54    24    23    2
    55    23    22    1
    56    43    42    2
    57    42    41    1
    58    26    27    1
    59    26    25    1
    60    28    27    1
    61    28    29    2
    62   135   136    1
    63    74    75   ar
    64    74    76   ar
    65    79    80    2
    66    79    82   am
    67   131   133   ar
    68   134   133   ar
    69    22    25    1
    70    22    21    1
    71    31    29    1
    72    29    30    1
    73   116   117    1
    74    41    44    1
    75    41    40    1
    76    82    83    1
    77   136   139    1
    78   136   137    1
    79   139   140    1
    80   123   122   ar
    81    94    93    2
    82   121   122    1
    83   121   120    1
    84   117   120    1
    85   117   118    1
    86    84    83    1
    87    84    85    2
    88    83    86    1
    89   122   124   ar
    90   138   137    2
    91    91    92    1
    92    90    88   am
    93    93    92    1
    94   118   119    2
    95    86    87    1
    96    87    88    1
    97    92    95    1
    98    88    89    2
    99    95    96    1
   100    98    96   ar
   101    98   100   ar
   102    38    37    2
   103    96    97   ar
   104   100   101   ar
   105   149   147   ar
   106   149   150   ar
   107    18    17    2
   108   147   146   ar
   109    37    39   am
   110    37    36    1
   111    17    16    1
   112     9     7   ar
   113     9    10   ar
   114    97    99   ar
   115    35    34    2
   116     7     6   ar
   117    34    33    1
   118   101    99   ar
   119   150   152   ar
   120   150   148   ar
   121   152   154   ar
   122   146   148   ar
   123   146   145    1
   124   141   142    1
   125    36    33    1
   126    10    12   ar
   127    10     8   ar
   128    33    32    1
   129    16    15    1
   130    16    19    1
   131     6     5    1
   132     6     8   ar
   133   148   151   ar
   134    12    14   ar
   135   145   142    1
   136     2     5    1
   137     2     1    1
   138     2     3    1
   139   154   153   ar
   140    20    19    1
   141     8    11   ar
   142   142   143    1
   143     3     4    2
   144   151   153   ar
   145    14    13   ar
   146   144   143    2
   147    11    13   ar
