@<TRIPOS>MOLECULE
tmp/1ojlE00.pdb
 159 152 0 0 0
SMALL
GASTEIGER

@<TRIPOS>ATOM
      1  N        -34.3570  -41.1030   -4.1040 N.3     2  MET2       -0.1230
      2  CA       -33.8250  -39.9880   -4.8880 C.3     2  MET2        0.1702
      3  C        -32.6360  -39.3500   -4.1740 C.2     2  MET2        0.2592
      4  O        -31.9770  -40.0250   -3.3710 O.2     2  MET2       -0.2718
      5  CB       -34.9170  -38.9610   -5.1380 C.3     2  MET2        0.0401
      6  CG       -36.0600  -39.5570   -5.9090 C.3     2  MET2        0.0596
      7  SD       -37.3770  -38.4280   -6.2090 S.3     2  MET2       -0.1393
      8  CE       -38.1040  -38.3130   -4.6070 C.3     2  MET2        0.0692
      9  N        -32.3700  -38.0590   -4.4220 N.am    3  ILE3       -0.1980
     10  CA       -31.0930  -37.4900   -3.9380 C.3     3  ILE3        0.1595
     11  C        -30.9560  -36.3160   -2.9720 C.2     3  ILE3        0.2287
     12  O        -29.9640  -36.2330   -2.2470 O.2     3  ILE3       -0.2864
     13  CB       -30.1420  -37.2210   -5.1050 C.3     3  ILE3        0.0276
     14  CG1      -29.4120  -38.5020   -5.4750 C.3     3  ILE3        0.0022
     15  CG2      -29.1000  -36.2130   -4.6750 C.3     3  ILE3        0.0022
     16  CD1      -28.5230  -38.3680   -6.6400 C.3     3  ILE3        0.0001
     17  N        -39.5310  -30.9780  -18.4790 N.3    32  SER32      -0.1202
     18  CA       -38.9860  -32.2990  -18.5420 C.3    32  SER32       0.2020
     19  C        -37.5760  -32.1800  -18.0870 C.2    32  SER32       0.2619
     20  O        -36.9360  -31.1350  -18.2920 O.2    32  SER32      -0.2717
     21  CB       -38.9770  -32.8080  -19.9930 C.3    32  SER32       0.2103
     22  OG       -37.8500  -32.3630  -20.7440 O.3    32  SER32      -0.2182
     23  N        -37.0890  -33.2700  -17.5050 N.am   33  GLY33      -0.1942
     24  CA       -35.6740  -33.4040  -17.2130 C.3    33  GLY33       0.2014
     25  C        -35.5030  -33.4220  -15.7400 C.2    33  GLY33       0.2640
     26  O        -34.4270  -33.0350  -15.2660 O.2    33  GLY33      -0.2714
     27  N        -36.5330  -33.9060  -15.0270 N.am   34  THR34      -0.1936
     28  CA       -36.4720  -33.6850  -13.6290 C.3    34  THR34       0.2028
     29  C        -36.5610  -34.8030  -12.6890 C.2    34  THR34       0.2643
     30  O        -36.0690  -34.6850  -11.6650 O.2    34  THR34      -0.2714
     31  CB       -37.6000  -32.8800  -13.2250 C.3    34  THR34       0.1808
     32  OG1      -38.6030  -33.8070  -12.8240 O.3    34  THR34      -0.2208
     33  CG2      -38.2040  -32.1970  -14.3660 C.3    34  THR34       0.0379
     34  N        -37.2770  -35.8500  -12.9110 N.am   35  GLY35      -0.1939
     35  CA       -37.3150  -36.8780  -11.8780 C.3    35  GLY35       0.2014
     36  C        -38.6940  -37.4940  -11.8810 C.2    35  GLY35       0.2639
     37  O        -39.0340  -38.3700  -11.1060 O.2    35  GLY35      -0.2714
     38  N        -39.5040  -37.0310  -12.8000 N.am   36  LYS36      -0.1963
     39  CA       -40.8420  -37.4680  -12.8130 C.3    36  LYS36       0.1728
     40  C        -40.8710  -38.9930  -12.7190 C.2    36  LYS36       0.2616
     41  O        -41.4650  -39.5610  -11.8160 O.2    36  LYS36      -0.2715
     42  CB       -41.5330  -36.9320  -14.0550 C.3    36  LYS36       0.0311
     43  CG       -41.6930  -35.4280  -14.0130 C.3    36  LYS36       0.0038
     44  CD       -42.9400  -34.9460  -14.7310 C.3    36  LYS36       0.0206
     45  CE       -42.9290  -35.2550  -16.2340 C.3    36  LYS36       0.1093
     46  NZ       -42.0580  -34.3600  -17.0180 N.3    36  LYS36      -0.1314
     47  N        -40.1960  -39.6770  -13.6080 N.am   37  GLU37      -0.1963
     48  CA       -40.2710  -41.1080  -13.5310 C.3    37  GLU37       0.1733
     49  C        -40.0290  -41.6610  -12.1100 C.2    37  GLU37       0.2616
     50  O        -40.7070  -42.6050  -11.7070 O.2    37  GLU37      -0.2715
     51  CB       -39.3580  -41.7450  -14.5690 C.3    37  GLU37       0.0429
     52  CG       -39.5950  -43.2480  -14.7620 C.3    37  GLU37       0.1163
     53  CD       -39.1880  -43.7570  -16.1500 C.2    37  GLU37       0.3649
     54  OE1      -39.1470  -44.9900  -16.3600 O.co2  37  GLU37      -0.2457
     55  OE2      -38.9150  -42.9220  -17.0410 O.co2  37  GLU37      -0.2457
     56  N        -39.0980  -41.0920  -11.3410 N.am   38  LEU38      -0.1977
     57  CA       -38.8600  -41.5740   -9.9630 C.3    38  LEU38       0.1596
     58  C        -40.0470  -41.2680   -9.0220 C.2    38  LEU38       0.2287
     59  O        -40.5420  -42.1560   -8.2900 O.2    38  LEU38      -0.2864
     60  CB       -37.5820  -41.0100   -9.3500 C.3    38  LEU38       0.0297
     61  CG       -36.3490  -41.1900  -10.2280 C.3    38  LEU38       0.0022
     62  CD1      -35.0710  -40.7680   -9.5470 C.3    38  LEU38       0.0001
     63  CD2      -36.2570  -42.6440  -10.6310 C.3    38  LEU38       0.0001
     64  N        -46.3470  -41.6730  -19.1790 N.3    98  ASP98      -0.1225
     65  CA       -45.5270  -40.4910  -19.2650 C.3    98  ASP98       0.1805
     66  C        -45.7550  -39.8020  -20.5930 C.2    98  ASP98       0.2597
     67  O        -45.9840  -40.4620  -21.6300 O.2    98  ASP98      -0.2718
     68  CB       -44.0480  -40.8390  -19.1420 C.3    98  ASP98       0.1424
     69  CG       -43.1590  -39.5870  -19.0880 C.2    98  ASP98       0.3668
     70  OD1      -41.9320  -39.6460  -18.7980 O.co2  98  ASP98      -0.2456
     71  OD2      -43.6300  -38.4720  -19.3100 O.co2  98  ASP98      -0.2456
     72  N        -45.6590  -38.4690  -20.5350 N.am   99  GLU99      -0.1979
     73  CA       -45.9030  -37.5710  -21.6620 C.3    99  GLU99       0.1602
     74  C        -47.3180  -37.7930  -22.1930 C.2    99  GLU99       0.2287
     75  O        -47.5020  -38.3100  -23.2860 O.2    99  GLU99      -0.2864
     76  CB       -44.8430  -37.7560  -22.7550 C.3    99  GLU99       0.0415
     77  CG       -43.4260  -37.5530  -22.2590 C.3    99  GLU99       0.1163
     78  CD       -42.4280  -37.2270  -23.3560 C.2    99  GLU99       0.3649
     79  OE1      -42.7880  -36.5080  -24.3140 O.co2  99  GLU99      -0.2457
     80  OE2      -41.2630  -37.6750  -23.2490 O.co2  99  GLU99      -0.2457
     81  N        -33.7740  -26.5180   -6.7160 N.3   173  ARG173     -0.1245
     82  CA       -33.2230  -27.4820   -5.7900 C.3   173  ARG173      0.1563
     83  C        -31.7260  -27.5130   -5.6860 C.2   173  ARG173      0.2260
     84  O        -31.1400  -28.5820   -5.5040 O.2   173  ARG173     -0.2867
     85  CB       -33.8610  -28.8720   -5.9090 C.3   173  ARG173      0.0307
     86  CG       -33.6830  -29.5650   -7.1920 C.3   173  ARG173      0.0489
     87  CD       -34.6040  -30.7690   -7.3040 C.3   173  ARG173      0.2205
     88  NE       -34.0140  -31.9690   -6.7310 N.pl3 173  ARG173     -0.0865
     89  CZ       -33.8840  -33.0810   -7.3960 C.cat 173  ARG173      0.5346
     90  NH1      -34.3090  -33.1460   -8.6550 N.pl3 173  ARG173      0.1354
     91  NH2      -33.3370  -34.1290   -6.8110 N.pl3 173  ARG173      0.1354
     92  N        -26.0250  -34.1690   -6.5930 N.3   180  LEU180     -0.1245
     93  CA       -26.5480  -34.7320   -7.8400 C.3   180  LEU180      0.1561
     94  C        -25.3890  -34.7190   -8.7910 C.2   180  LEU180      0.2260
     95  O        -25.2570  -35.5860   -9.5760 O.2   180  LEU180     -0.2867
     96  CB       -27.6470  -33.8610   -8.4310 C.3   180  LEU180      0.0270
     97  CG       -28.7880  -34.5520   -9.1170 C.3   180  LEU180      0.0019
     98  CD1      -29.3760  -35.5280   -8.2540 C.3   180  LEU180      0.0001
     99  CD2      -29.8610  -33.5580   -9.3860 C.3   180  LEU180      0.0001
    100  N        -22.6660  -37.6770   -8.4610 N.3   183  HIS183     -0.1226
    101  CA       -23.2230  -38.8570   -9.0390 C.3   183  HIS183      0.1752
    102  C        -22.7500  -38.9810  -10.4860 C.2   183  HIS183      0.2596
    103  O        -21.9040  -39.8210  -10.7840 O.2   183  HIS183     -0.2718
    104  CB       -24.7310  -38.8390   -8.9160 C.3   183  HIS183      0.0759
    105  CG       -25.4000  -40.0450   -9.4820 C.ar  183  HIS183      0.0818
    106  ND1      -25.7390  -40.1480  -10.8120 N.ar  183  HIS183     -0.2268
    107  CD2      -25.8100  -41.1910   -8.8970 C.ar  183  HIS183      0.1154
    108  CE1      -26.3170  -41.3160  -11.0260 C.ar  183  HIS183      0.1986
    109  NE2      -26.3730  -41.9660   -9.8790 N.ar  183  HIS183     -0.2212
    110  N        -23.2350  -38.1480  -11.4000 N.am  184  PHE184     -0.1976
    111  CA       -22.7730  -38.3460  -12.7660 C.3   184  PHE184      0.1639
    112  C        -21.2630  -38.3430  -12.8860 C.2   184  PHE184      0.2290
    113  O        -20.7380  -38.9390  -13.8240 O.2   184  PHE184     -0.2864
    114  CB       -23.2980  -37.3010  -13.6580 C.3   184  PHE184      0.0560
    115  CG       -24.7690  -37.2290  -13.6760 C.ar  184  PHE184     -0.0200
    116  CD1      -25.4460  -36.0430  -13.3120 C.ar  184  PHE184     -0.0042
    117  CD2      -25.4880  -38.3220  -14.0950 C.ar  184  PHE184     -0.0042
    118  CE1      -26.8150  -35.9900  -13.3500 C.ar  184  PHE184     -0.0003
    119  CE2      -26.8620  -38.2810  -14.1190 C.ar  184  PHE184     -0.0003
    120  CZ       -27.5380  -37.1170  -13.7490 C.ar  184  PHE184     -0.0000
    121  N        -20.2870  -41.6600  -12.4290 N.3   187  ARG187     -0.1245
    122  CA       -20.7610  -42.5080  -13.4930 C.3   187  ARG187      0.1563
    123  C        -19.8850  -42.3500  -14.7000 C.2   187  ARG187      0.2260
    124  O        -19.4200  -43.2900  -15.2560 O.2   187  ARG187     -0.2867
    125  CB       -22.1960  -42.2540  -13.8720 C.3   187  ARG187      0.0307
    126  CG       -22.5970  -43.2360  -14.9290 C.3   187  ARG187      0.0489
    127  CD       -23.8120  -42.8630  -15.6530 C.3   187  ARG187      0.2205
    128  NE       -24.8920  -42.6360  -14.7320 N.pl3 187  ARG187     -0.0865
    129  CZ       -26.0320  -42.0590  -15.0660 C.cat 187  ARG187      0.5346
    130  NH1      -26.2230  -41.6610  -16.3300 N.pl3 187  ARG187      0.1354
    131  NH2      -26.9690  -41.8630  -14.1300 N.pl3 187  ARG187      0.1354
    132  N        -32.0150  -31.7760  -15.2520 N.3   216  ILE216     -0.1231
    133  CA       -31.0560  -32.7600  -14.9830 C.3   216  ILE216      0.1692
    134  C        -30.2950  -33.1490  -16.1830 C.2   216  ILE216      0.2591
    135  O        -29.0920  -33.1430  -16.2230 O.2   216  ILE216     -0.2718
    136  CB       -31.7460  -33.9020  -14.5570 C.3   216  ILE216      0.0266
    137  CG1      -31.7210  -33.9440  -13.0620 C.3   216  ILE216      0.0019
    138  CG2      -30.9430  -34.9200  -14.9220 C.3   216  ILE216      0.0020
    139  CD1      -32.7970  -33.1860  -12.4010 C.3   216  ILE216      0.0001
    140  N        -31.0140  -33.4860  -17.2100 N.am  217  ARG217     -0.1980
    141  CA       -30.3930  -33.9210  -18.3940 C.3   217  ARG217      0.1597
    142  C        -29.3490  -32.9450  -18.7640 C.2   217  ARG217      0.2287
    143  O        -28.2680  -33.3180  -19.0970 O.2   217  ARG217     -0.2864
    144  CB       -31.3980  -33.9210  -19.4620 C.3   217  ARG217      0.0334
    145  CG       -32.4800  -35.0390  -19.4590 C.3   217  ARG217      0.0492
    146  CD       -31.9600  -36.4080  -19.7120 C.3   217  ARG217      0.2205
    147  NE       -32.9910  -37.4250  -19.5400 N.pl3 217  ARG217     -0.0865
    148  CZ       -34.2280  -37.3220  -20.0050 C.cat 217  ARG217      0.5346
    149  NH1      -34.6200  -36.2340  -20.6530 N.pl3 217  ARG217      0.1354
    150  NH2      -35.0840  -38.3020  -19.8170 N.pl3 217  ARG217      0.1354
    151  N        -26.4700  -33.5380  -16.7020 N.3   220  GLU220     -0.1245
    152  CA       -25.8900  -34.8380  -17.0830 C.3   220  GLU220      0.1567
    153  C        -24.9480  -34.6290  -18.2240 C.2   220  GLU220      0.2260
    154  O        -23.8580  -35.1350  -18.2090 O.2   220  GLU220     -0.2867
    155  CB       -26.9220  -35.8960  -17.4280 C.3   220  GLU220      0.0388
    156  CG       -26.2820  -37.2560  -17.5790 C.3   220  GLU220      0.1160
    157  CD       -27.1990  -38.3410  -18.1750 C.2   220  GLU220      0.3649
    158  OE1      -28.2950  -38.6460  -17.6490 O.co2 220  GLU220     -0.2457
    159  OE2      -26.8020  -38.9400  -19.1830 O.co2 220  GLU220     -0.2457
@<TRIPOS>BOND
     1    79    78   ar
     2    78    80   ar
     3    78    77    1
     4    75    74    2
     5    76    77    1
     6    76    73    1
     7    74    73    1
     8    73    72    1
     9    67    66    2
    10    22    21    1
    11   149   148    1
    12    66    72   am
    13    66    65    1
    14   148   150    1
    15   148   147    2
    16    21    18    1
    17   146   147    1
    18   146   145    1
    19   144   145    1
    20   144   141    1
    21    71    69   ar
    22    65    64    1
    23    65    68    1
    24   159   157   ar
    25    68    69    1
    26   143   142    2
    27    69    70   ar
    28   142   141    1
    29    18    17    1
    30    18    19    1
    31   141   140    1
    32    20    19    2
    33   153   154    2
    34   153   152    1
    35   157   158   ar
    36   157   156    1
    37    19    23   am
    38   156   155    1
    39    23    24    1
    40   155   152    1
    41    24    25    1
    42   140   134   am
    43   152   151    1
    44    55    53   ar
    45    46    45    1
    46    54    53   ar
    47   130   129    1
    48    45    44    1
    49   135   134    2
    50   134   133    1
    51    53    52    1
    52    25    26    2
    53    25    27   am
    54   127   126    1
    55   127   128    1
    56   124   123    2
    57   132   133    1
    58   129   128    2
    59   129   131    1
    60    27    28    1
    61   133   136    1
    62   126   125    1
    63   138   136    1
    64    52    51    1
    65    44    43    1
    66   123   122    1
    67    51    48    1
    68   136   137    1
    69    33    31    1
    70   119   117   ar
    71   119   120   ar
    72   117   115   ar
    73    42    43    1
    74    42    39    1
    75   125   122    1
    76   113   112    2
    77   120   118   ar
    78   115   114    1
    79   115   116   ar
    80   114   111    1
    81    28    31    1
    82    28    29    1
    83    47    48    1
    84    47    40   am
    85    48    49    1
    86   122   121    1
    87   118   116   ar
    88    31    32    1
    89   137   139    1
    90    34    29   am
    91    34    35    1
    92   112   111    1
    93    39    38    1
    94    39    40    1
    95    38    36   am
    96   111   110    1
    97    40    41    2
    98    29    30    2
    99    49    50    2
   100    49    56   am
   101    36    35    1
   102    36    37    2
   103   110   102   am
   104    56    57    1
   105   108   106   ar
   106   108   109   ar
   107   106   105   ar
   108   103   102    2
   109    63    61    1
   110   102   101    1
   111    61    62    1
   112    61    60    1
   113    57    60    1
   114    57    58    1
   115   109   107   ar
   116    95    94    2
   117   105   104    1
   118   105   107   ar
   119    99    97    1
   120    97    96    1
   121    97    98    1
   122   101   104    1
   123   101   100    1
   124    58    59    2
   125    94    93    1
   126    90    89    1
   127    96    93    1
   128    93    92    1
   129    89    91    1
   130    89    88    2
   131    87    86    1
   132    87    88    1
   133    86    85    1
   134    81    82    1
   135    16    14    1
   136     7     6    1
   137     7     8    1
   138    85    82    1
   139     6     5    1
   140    82    83    1
   141    83    84    2
   142    14    13    1
   143     5     2    1
   144    13    15    1
   145    13    10    1
   146     2     3    1
   147     2     1    1
   148     9     3   am
   149     9    10    1
   150     3     4    2
   151    10    11    1
   152    11    12    2
