@<TRIPOS>MOLECULE
tmp/1ojmA00.pdb
 200 190 0 0 0
SMALL
GASTEIGER

@<TRIPOS>ATOM
      1  N          5.6630   51.4230   20.0100 N.3    74  ARG74      -0.1245
      2  CA         4.3030   51.0410   20.3720 C.3    74  ARG74       0.1563
      3  C          3.3230   52.1860   20.1090 C.2    74  ARG74       0.2260
      4  O          2.1460   51.9500   19.8440 O.2    74  ARG74      -0.2867
      5  CB         4.2380   50.5740   21.8300 C.3    74  ARG74       0.0307
      6  CG         4.7170   49.1330   21.9720 C.3    74  ARG74       0.0489
      7  CD         4.6430   48.5960   23.3930 C.3    74  ARG74       0.2205
      8  NE         4.9820   47.1750   23.4060 N.pl3  74  ARG74      -0.0865
      9  CZ         4.9830   46.4100   24.4920 C.cat  74  ARG74       0.5346
     10  NH1        5.3080   45.1280   24.3930 N.pl3  74  ARG74       0.1354
     11  NH2        4.6580   46.9240   25.6740 N.pl3  74  ARG74       0.1354
     12  N         18.3140   46.8780   28.1360 N.3   121  ASN121     -0.1225
     13  CA        17.7430   45.5340   28.2110 C.3   121  ASN121      0.1785
     14  C         17.5880   44.8600   26.8480 C.2   121  ASN121      0.2597
     15  O         17.0080   45.4320   25.9240 O.2   121  ASN121     -0.2718
     16  CB        16.3810   45.5860   28.9090 C.3   121  ASN121      0.1169
     17  CG        15.9800   44.2490   29.5030 C.2   121  ASN121      0.2627
     18  OD1       15.8420   43.2550   28.7920 O.2   121  ASN121     -0.2716
     19  ND2       15.8030   44.2180   30.8200 N.am  121  ASN121     -0.0877
     20  N         18.0950   43.6350   26.7400 N.am  122  TRP122     -0.1962
     21  CA        18.0240   42.8660   25.4980 C.3   122  TRP122      0.1771
     22  C         16.5780   42.6670   25.0210 C.2   122  TRP122      0.2620
     23  O         16.3040   42.6430   23.8190 O.2   122  TRP122     -0.2715
     24  CB        18.6600   41.4880   25.6990 C.3   122  TRP122      0.0590
     25  CG        17.8640   40.6200   26.6360 C.ar  122  TRP122      0.0006
     26  CD1       17.9030   40.6300   28.0060 C.ar  122  TRP122      0.0946
     27  CD2       16.8310   39.6960   26.2720 C.ar  122  TRP122      0.0152
     28  NE1       16.9500   39.7740   28.5140 N.ar  122  TRP122     -0.2442
     29  CE2       16.2770   39.1890   27.4720 C.ar  122  TRP122      0.0810
     30  CE3       16.3120   39.2530   25.0450 C.ar  122  TRP122      0.0012
     31  CZ2       15.2330   38.2570   27.4820 C.ar  122  TRP122      0.0191
     32  CZ3       15.2740   38.3260   25.0540 C.ar  122  TRP122      0.0001
     33  CH2       14.7430   37.8400   26.2680 C.ar  122  TRP122      0.0015
     34  N         15.6570   42.5170   25.9680 N.am  123  TRP123     -0.1960
     35  CA        14.2530   42.2800   25.6400 C.3   123  TRP123      0.1771
     36  C         13.6660   43.3220   24.6850 C.2   123  TRP123      0.2619
     37  O         12.9450   42.9780   23.7400 O.2   123  TRP123     -0.2715
     38  CB        13.4170   42.2400   26.9200 C.3   123  TRP123      0.0590
     39  CG        12.0150   41.7550   26.6990 C.ar  123  TRP123      0.0006
     40  CD1       11.5810   40.4590   26.7130 C.ar  123  TRP123      0.0946
     41  CD2       10.8640   42.5620   26.4220 C.ar  123  TRP123      0.0152
     42  NE1       10.2260   40.4090   26.4680 N.ar  123  TRP123     -0.2442
     43  CE2        9.7610   41.6840   26.2880 C.ar  123  TRP123      0.0810
     44  CE3       10.6550   43.9400   26.2800 C.ar  123  TRP123      0.0012
     45  CZ2        8.4670   42.1440   26.0140 C.ar  123  TRP123      0.0191
     46  CZ3        9.3660   44.3970   26.0080 C.ar  123  TRP123      0.0001
     47  CH2        8.2880   43.4980   25.8810 C.ar  123  TRP123      0.0015
     48  N         13.9580   44.5910   24.9430 N.am  124  ASP124     -0.1971
     49  CA        13.4560   45.6660   24.0950 C.3   124  ASP124      0.1709
     50  C         13.9890   45.5370   22.6730 C.2   124  ASP124      0.2293
     51  O         13.2450   45.7020   21.7110 O.2   124  ASP124     -0.2864
     52  CB        13.8450   47.0230   24.6760 C.3   124  ASP124      0.1436
     53  CG        13.0960   47.3420   25.9530 C.2   124  ASP124      0.3671
     54  OD1       11.8440   47.3710   25.9200 O.co2 124  ASP124     -0.2456
     55  OD2       13.7570   47.5660   26.9900 O.co2 124  ASP124     -0.2456
     56  N          8.4140   43.2920   17.8060 N.3   131  ARG131     -0.1245
     57  CA         6.9770   43.0290   17.7860 C.3   131  ARG131      0.1563
     58  C          6.1850   44.2780   17.3900 C.2   131  ARG131      0.2260
     59  O          5.2350   44.1900   16.6130 O.2   131  ARG131     -0.2867
     60  CB         6.4970   42.5330   19.1570 C.3   131  ARG131      0.0307
     61  CG         6.7250   41.0390   19.4050 C.3   131  ARG131      0.0489
     62  CD         6.4390   40.6820   20.8580 C.3   131  ARG131      0.2205
     63  NE         5.1500   41.2080   21.2930 N.pl3 131  ARG131     -0.0865
     64  CZ         4.8020   41.3900   22.5630 C.cat 131  ARG131      0.5346
     65  NH1        5.6470   41.0830   23.5380 N.pl3 131  ARG131      0.1354
     66  NH2        3.6130   41.9030   22.8560 N.pl3 131  ARG131      0.1354
     67  N          9.0660   33.2320   26.2900 N.3   180  ASN180     -0.1240
     68  CA        10.0670   33.8330   25.4130 C.3   180  ASN180      0.1653
     69  C         10.0280   33.1820   24.0350 C.2   180  ASN180      0.2266
     70  O         10.0960   33.8700   23.0160 O.2   180  ASN180     -0.2867
     71  CB        11.4670   33.6720   26.0140 C.3   180  ASN180      0.1155
     72  CG        11.7130   34.6060   27.1840 C.2   180  ASN180      0.2627
     73  OD1       12.5580   34.3340   28.0400 O.2   180  ASN180     -0.2716
     74  ND2       10.9950   35.7170   27.2200 N.am  180  ASN180     -0.0877
     75  N          6.2930   35.5630   17.5580 N.3   186  ARG186     -0.1245
     76  CA         5.6830   36.8440   17.2220 C.3   186  ARG186      0.1563
     77  C          6.6980   37.8170   16.6260 C.2   186  ARG186      0.2260
     78  O          6.3260   38.8550   16.0800 O.2   186  ARG186     -0.2867
     79  CB         4.9960   37.4550   18.4550 C.3   186  ARG186      0.0307
     80  CG         3.7910   36.6240   18.9250 C.3   186  ARG186      0.0489
     81  CD         2.8440   37.3840   19.8520 C.3   186  ARG186      0.2205
     82  NE         3.4410   37.6970   21.1480 N.pl3 186  ARG186     -0.0865
     83  CZ         2.7730   38.2450   22.1580 C.cat 186  ARG186      0.5346
     84  NH1        1.4840   38.5380   22.0210 N.pl3 186  ARG186      0.1354
     85  NH2        3.3920   38.5080   23.3030 N.pl3 186  ARG186      0.1354
     86  N          6.1670   30.2340   37.7530 N.3   235  TYR235     -0.1241
     87  CA         5.7810   31.3740   36.9260 C.3   235  TYR235      0.1605
     88  C          4.6040   31.2360   35.9700 C.2   235  TYR235      0.2264
     89  O          4.5080   31.9880   34.9900 O.2   235  TYR235     -0.2867
     90  CB         7.0090   31.8380   36.1310 C.3   235  TYR235      0.0534
     91  CG         7.4710   33.2320   36.4780 C.ar  235  TYR235     -0.0201
     92  CD1        6.5510   34.2700   36.6130 C.ar  235  TYR235     -0.0009
     93  CD2        8.8240   33.5200   36.6580 C.ar  235  TYR235     -0.0009
     94  CE1        6.9610   35.5600   36.9160 C.ar  235  TYR235      0.0417
     95  CE2        9.2490   34.8160   36.9650 C.ar  235  TYR235      0.0417
     96  CZ         8.3060   35.8260   37.0910 C.ar  235  TYR235      0.1957
     97  OH         8.6890   37.1040   37.4020 O.3   235  TYR235     -0.2866
     98  N          2.6170   34.6180   34.7570 N.3   238  ALA238     -0.1231
     99  CA         3.1960   35.7860   34.1010 C.3   238  ALA238      0.1694
    100  C          3.8150   35.3270   32.7860 C.2   238  ALA238      0.2592
    101  O          3.3680   35.7200   31.7200 O.2   238  ALA238     -0.2718
    102  CB         4.2470   36.4460   34.9960 C.3   238  ALA238      0.0304
    103  N          4.8360   34.4780   32.8630 N.am  239  TYR239     -0.1976
    104  CA         5.4610   33.9700   31.6460 C.3   239  TYR239      0.1639
    105  C          4.5380   32.9620   30.9700 C.2   239  TYR239      0.2290
    106  O          4.4900   32.8810   29.7420 O.2   239  TYR239     -0.2864
    107  CB         6.8400   33.3780   31.9680 C.3   239  TYR239      0.0560
    108  CG         7.8700   34.4710   32.1310 C.ar  239  TYR239     -0.0198
    109  CD1        8.3820   35.1380   31.0150 C.ar  239  TYR239     -0.0009
    110  CD2        8.2570   34.9120   33.3960 C.ar  239  TYR239     -0.0009
    111  CE1        9.2460   36.2220   31.1530 C.ar  239  TYR239      0.0417
    112  CE2        9.1170   35.9980   33.5490 C.ar  239  TYR239      0.0417
    113  CZ         9.6040   36.6510   32.4260 C.ar  239  TYR239      0.1957
    114  OH        10.4100   37.7570   32.5760 O.3   239  TYR239     -0.2866
    115  N          2.0360   34.9940   29.0000 N.3   242  VAL242     -0.1245
    116  CA         2.6220   35.4280   27.7370 C.3   242  VAL242      0.1561
    117  C          2.5990   34.2830   26.7330 C.2   242  VAL242      0.2260
    118  O          2.2320   34.4670   25.5730 O.2   242  VAL242     -0.2867
    119  CB         4.0800   35.8980   27.9480 C.3   242  VAL242      0.0252
    120  CG1        4.7760   36.0920   26.6130 C.3   242  VAL242      0.0019
    121  CG2        4.0880   37.1940   28.7470 C.3   242  VAL242      0.0019
    122  N         -1.1360   33.4740   25.7640 N.3   245  ASP245     -0.1239
    123  CA        -1.6990   34.6430   25.0920 C.3   245  ASP245      0.1674
    124  C         -1.0890   34.7760   23.6860 C.2   245  ASP245      0.2266
    125  O         -1.8110   34.8330   22.6880 O.2   245  ASP245     -0.2867
    126  CB        -1.4180   35.8920   25.9420 C.3   245  ASP245      0.1410
    127  CG        -2.0500   37.1590   25.3800 C.2   245  ASP245      0.3668
    128  OD1       -3.1620   37.0970   24.8100 O.co2 245  ASP245     -0.2456
    129  OD2       -1.4290   38.2330   25.5380 O.co2 245  ASP245     -0.2456
    130  N          7.3430   38.5230   39.8330 N.3   293  ARG293     -0.1231
    131  CA         7.5060   39.9500   40.0660 C.3   293  ARG293      0.1694
    132  C          6.3950   40.8260   39.4980 C.2   293  ARG293      0.2592
    133  O          6.3100   42.0050   39.8380 O.2   293  ARG293     -0.2718
    134  CB         8.8630   40.4190   39.5260 C.3   293  ARG293      0.0321
    135  CG         8.9870   40.4470   38.0060 C.3   293  ARG293      0.0489
    136  CD        10.4020   40.8650   37.5900 C.3   293  ARG293      0.2205
    137  NE        10.4530   41.3300   36.2060 N.pl3 293  ARG293     -0.0865
    138  CZ        10.5310   40.5420   35.1390 C.cat 293  ARG293      0.5346
    139  NH1       10.5820   39.2210   35.2810 N.pl3 293  ARG293      0.1354
    140  NH2       10.5320   41.0800   33.9220 N.pl3 293  ARG293      0.1354
    141  N          5.5430   40.2550   38.6480 N.am  294  SER294     -0.1952
    142  CA         4.4390   41.0090   38.0530 C.3   294  SER294      0.1924
    143  C          3.4140   41.5200   39.0680 C.2   294  SER294      0.2314
    144  O          2.6050   42.3870   38.7450 O.2   294  SER294     -0.2863
    145  CB         3.7270   40.1640   36.9980 C.3   294  SER294      0.2116
    146  OG         4.4710   40.1820   35.7990 O.3   294  SER294     -0.2180
    147  N          3.1610   45.3590   39.6260 N.3   297  ARG297     -0.1245
    148  CA         2.7360   46.2470   38.5390 C.3   297  ARG297      0.1563
    149  C          1.2880   46.6780   38.7750 C.2   297  ARG297      0.2260
    150  O          0.3750   45.8510   38.7690 O.2   297  ARG297     -0.2867
    151  CB         2.8540   45.5310   37.1920 C.3   297  ARG297      0.0307
    152  CG         4.2790   45.1480   36.8340 C.3   297  ARG297      0.0489
    153  CD         4.3260   44.2440   35.6160 C.3   297  ARG297      0.2205
    154  NE         5.6740   43.7340   35.3930 N.pl3 297  ARG297     -0.0865
    155  CZ         5.9600   42.7190   34.5860 C.cat 297  ARG297      0.5346
    156  NH1        4.9870   42.1020   33.9260 N.pl3 297  ARG297      0.1354
    157  NH2        7.2180   42.3220   34.4380 N.pl3 297  ARG297      0.1354
    158  N         -1.5110   45.5270   36.4850 N.3   300  SER300     -0.1217
    159  CA        -1.6350   44.0880   36.3130 C.3   300  SER300      0.1889
    160  C         -2.0430   43.3230   37.5600 C.2   300  SER300      0.2288
    161  O         -1.4570   42.2840   37.8630 O.2   300  SER300     -0.2866
    162  CB        -0.3120   43.5230   35.7890 C.3   300  SER300      0.2089
    163  OG         0.0800   44.1690   34.5900 O.3   300  SER300     -0.2183
    164  N         -5.6310   37.9030   30.6930 N.3   308  GLU308     -0.1245
    165  CA        -4.5660   37.5700   29.7490 C.3   308  GLU308      0.1567
    166  C         -4.6610   36.0920   29.4190 C.2   308  GLU308      0.2260
    167  O         -4.5110   35.6840   28.2670 O.2   308  GLU308     -0.2867
    168  CB        -3.1810   37.8120   30.3490 C.3   308  GLU308      0.0388
    169  CG        -2.5990   39.1760   30.1490 C.3   308  GLU308      0.1160
    170  CD        -1.1060   39.1780   30.4110 C.2   308  GLU308      0.3649
    171  OE1       -0.6950   38.6440   31.4590 O.co2 308  GLU308     -0.2457
    172  OE2       -0.3470   39.7070   29.5730 O.co2 308  GLU308     -0.2457
    173  N         -8.3790   35.1720   27.7310 N.3   311  ARG311     -0.1245
    174  CA        -8.5120   35.5150   26.3200 C.3   311  ARG311      0.1563
    175  C         -7.7350   34.5160   25.4690 C.2   311  ARG311      0.2260
    176  O         -8.1470   34.1860   24.3520 O.2   311  ARG311     -0.2867
    177  CB        -8.0490   36.9610   26.0690 C.3   311  ARG311      0.0307
    178  CG        -6.5650   37.2230   26.2210 C.3   311  ARG311      0.0489
    179  CD        -6.3100   38.7180   26.3600 C.3   311  ARG311      0.2205
    180  NE        -4.8890   39.0450   26.2660 N.pl3 311  ARG311     -0.0865
    181  CZ        -4.3780   40.2420   26.5380 C.cat 311  ARG311      0.5346
    182  NH1       -5.1730   41.2290   26.9260 N.pl3 311  ARG311      0.1354
    183  NH2       -3.0720   40.4500   26.4260 N.pl3 311  ARG311      0.1354
    184  N         14.8090   43.6810   37.2460 N.3   411  ASN411     -0.1240
    185  CA        14.3930   44.8070   36.4190 C.3   411  ASN411      0.1653
    186  C         13.7590   45.8500   37.3210 C.2   411  ASN411      0.2266
    187  O         12.8550   46.5810   36.9160 O.2   411  ASN411     -0.2867
    188  CB        13.4180   44.3680   35.3250 C.3   411  ASN411      0.1155
    189  CG        14.1220   43.6620   34.1810 C.2   411  ASN411      0.2627
    190  OD1       15.3470   43.7280   34.0640 O.2   411  ASN411     -0.2716
    191  ND2       13.3550   42.9960   33.3250 N.am  411  ASN411     -0.0877
    192  N         11.8520   45.4100   39.7590 N.3   413  GLU413     -0.1245
    193  CA        10.4720   45.0650   40.1050 C.3   413  GLU413      0.1567
    194  C         10.4030   44.0700   41.2630 C.2   413  GLU413      0.2260
    195  O         11.2230   43.1500   41.3550 O.2   413  GLU413     -0.2867
    196  CB         9.7560   44.4630   38.8890 C.3   413  GLU413      0.0388
    197  CG         9.7940   45.3290   37.6430 C.3   413  GLU413      0.1160
    198  CD         8.9230   44.7660   36.5430 C.2   413  GLU413      0.3649
    199  OE1        9.3350   43.7680   35.9190 O.co2 413  GLU413     -0.2457
    200  OE2        7.8210   45.3170   36.3150 O.co2 413  GLU413     -0.2457
@<TRIPOS>BOND
     1    78    77    2
     2    59    58    2
     3    77    76    1
     4    76    75    1
     5    76    79    1
     6    58    57    1
     7    57    56    1
     8    57    60    1
     9    79    80    1
    10    80    81    1
    11    60    61    1
    12    61    62    1
    13     4     3    2
    14    81    82    1
    15     1     2    1
    16     3     2    1
    17     2     5    1
    18    62    63    1
    19    82    83    2
    20    63    64    2
    21    51    50    2
    22     5     6    1
    23     6     7    1
    24    84    83    1
    25    83    85    1
    26    64    66    1
    27    64    65    1
    28    50    49    1
    29   125   124    2
    30    70    69    2
    31     7     8    1
    32     8     9    2
    33   124   123    1
    34    37    36    2
    35    23    22    2
    36    69    68    1
    37    49    52    1
    38    49    48    1
    39   176   175    2
    40    10     9    1
    41     9    11    1
    42    52    53    1
    43    36    48   am
    44    36    35    1
    45   128   127   ar
    46    22    21    1
    47    22    34   am
    48    30    32   ar
    49    30    27   ar
    50    32    33   ar
    51   123   122    1
    52   123   126    1
    53   127   129   ar
    54   127   126    1
    55    68    71    1
    56    68    67    1
    57   175   174    1
    58    21    24    1
    59    21    20    1
    60   118   117    2
    61    35    34    1
    62    35    38    1
    63    24    25    1
    64    47    46   ar
    65    47    45   ar
    66    54    53   ar
    67    15    14    2
    68    53    55   ar
    69    46    44   ar
    70    45    43   ar
    71    71    72    1
    72   177   178    1
    73   177   174    1
    74   178   179    1
    75   180   179    1
    76   180   181    2
    77    33    31   ar
    78    27    25   ar
    79    27    29   ar
    80    44    41   ar
    81    43    41   ar
    82    43    42   ar
    83   174   173    1
    84    41    39   ar
    85   183   181    1
    86    42    40   ar
    87   181   182    1
    88   120   119    1
    89    25    26   ar
    90    39    40   ar
    91    39    38    1
    92   117   116    1
    93    20    14   am
    94    14    13    1
    95    72    74   am
    96    72    73    2
    97    29    31   ar
    98    29    28   ar
    99   116   119    1
   100   116   115    1
   101   119   121    1
   102    26    28   ar
   103    12    13    1
   104    13    16    1
   105   167   166    2
   106    18    17    2
   107    16    17    1
   108   166   165    1
   109    17    19   am
   110   172   170   ar
   111   106   105    2
   112   165   168    1
   113   165   164    1
   114   169   168    1
   115   169   170    1
   116   170   171   ar
   117   105   104    1
   118   109   111   ar
   119   109   108   ar
   120   111   113   ar
   121   104   107    1
   122   104   103    1
   123   101   100    2
   124   107   108    1
   125   108   110   ar
   126   113   114    1
   127   113   112   ar
   128   100   103   am
   129   100    99    1
   130   191   189   am
   131   110   112   ar
   132   140   138    1
   133   156   155    1
   134   190   189    2
   135    99    98    1
   136    99   102    1
   137   189   188    1
   138   157   155    1
   139   155   154    2
   140   163   162    1
   141    89    88    2
   142   138   139    1
   143   138   137    2
   144   188   185    1
   145   154   153    1
   146   153   152    1
   147   162   159    1
   148   146   145    1
   149   199   198   ar
   150    88    87    1
   151    90    91    1
   152    90    87    1
   153   137   136    1
   154   159   158    1
   155   159   160    1
   156   200   198   ar
   157   185   184    1
   158   185   186    1
   159    91    92   ar
   160    91    93   ar
   161   198   197    1
   162    92    94   ar
   163    93    95   ar
   164   152   151    1
   165    94    96   ar
   166   187   186    2
   167    87    86    1
   168    95    96   ar
   169   145   142    1
   170    96    97    1
   171   151   148    1
   172   160   161    2
   173   136   135    1
   174   197   196    1
   175   135   134    1
   176   142   141    1
   177   142   143    1
   178   148   149    1
   179   148   147    1
   180   141   132   am
   181   144   143    2
   182   150   149    2
   183   196   193    1
   184   132   133    2
   185   132   131    1
   186   134   131    1
   187   192   193    1
   188   130   131    1
   189   193   194    1
   190   194   195    2
