@<TRIPOS>MOLECULE
tmp/1ojnA00.pdb
 192 179 0 0 0
SMALL
GASTEIGER

@<TRIPOS>ATOM
      1  N         13.7150   50.8330   28.8170 N.3    67  ALA67      -0.1245
      2  CA        12.2610   50.9110   28.9430 C.3    67  ALA67       0.1562
      3  C         11.6740   52.0260   28.0770 C.2    67  ALA67       0.2260
      4  O         10.5320   51.9350   27.6200 O.2    67  ALA67      -0.2867
      5  CB        11.8740   51.1280   30.4000 C.3    67  ALA67       0.0290
      6  N          5.5760   51.6420   21.4350 N.3    74  ARG74      -0.1245
      7  CA         4.2040   51.2410   21.7180 C.3    74  ARG74       0.1563
      8  C          3.2380   52.3870   21.4380 C.2    74  ARG74       0.2260
      9  O          2.0720   52.1580   21.1240 O.2    74  ARG74      -0.2867
     10  CB         4.0660   50.7520   23.1610 C.3    74  ARG74       0.0307
     11  CG         4.6270   49.3520   23.3450 C.3    74  ARG74       0.0489
     12  CD         4.3980   48.7980   24.7360 C.3    74  ARG74       0.2205
     13  NE         4.8090   47.3980   24.7990 N.pl3  74  ARG74      -0.0865
     14  CZ         4.7960   46.6570   25.9010 C.cat  74  ARG74       0.5346
     15  NH1        5.1890   45.3910   25.8490 N.pl3  74  ARG74       0.1354
     16  NH2        4.3960   47.1800   27.0520 N.pl3  74  ARG74       0.1354
     17  N         18.1030   46.8970   29.7410 N.3   121  ASN121     -0.1240
     18  CA        17.4180   45.6060   29.7970 C.3   121  ASN121      0.1653
     19  C         17.3350   44.9500   28.4140 C.2   121  ASN121      0.2266
     20  O         16.7870   45.5290   27.4750 O.2   121  ASN121     -0.2867
     21  CB        16.0030   45.7980   30.3520 C.3   121  ASN121      0.1155
     22  CG        15.3880   44.5060   30.8580 C.2   121  ASN121      0.2627
     23  OD1       15.6770   43.4210   30.3500 O.2   121  ASN121     -0.2716
     24  ND2       14.5180   44.6190   31.8580 N.am  121  ASN121     -0.0877
     25  N         15.5020   42.6180   27.4950 N.3   123  TRP123     -0.1227
     26  CA        14.1060   42.3460   27.1730 C.3   123  TRP123      0.1737
     27  C         13.5020   43.3840   26.2320 C.2   123  TRP123      0.2595
     28  O         12.7240   43.0450   25.3410 O.2   123  TRP123     -0.2718
     29  CB        13.2750   42.2830   28.4520 C.3   123  TRP123      0.0564
     30  CG        11.8780   41.7990   28.2230 C.ar  123  TRP123      0.0003
     31  CD1       11.4370   40.5070   28.2750 C.ar  123  TRP123      0.0946
     32  CD2       10.7390   42.6020   27.8910 C.ar  123  TRP123      0.0152
     33  NE1       10.0900   40.4560   28.0000 N.ar  123  TRP123     -0.2442
     34  CE2        9.6370   41.7270   27.7600 C.ar  123  TRP123      0.0810
     35  CE3       10.5420   43.9760   27.6910 C.ar  123  TRP123      0.0012
     36  CZ2        8.3520   42.1830   27.4420 C.ar  123  TRP123      0.0191
     37  CZ3        9.2630   44.4290   27.3740 C.ar  123  TRP123      0.0001
     38  CH2        8.1860   43.5330   27.2520 C.ar  123  TRP123      0.0015
     39  N         13.8480   44.6490   26.4420 N.am  124  ASP124     -0.1974
     40  CA        13.3310   45.7220   25.6000 C.3   124  ASP124      0.1709
     41  C         13.8990   45.6350   24.1880 C.2   124  ASP124      0.2293
     42  O         13.1990   45.9020   23.2110 O.2   124  ASP124     -0.2864
     43  CB        13.6710   47.0870   26.2040 C.3   124  ASP124      0.1436
     44  CG        12.8860   47.3790   27.4650 C.2   124  ASP124      0.3671
     45  OD1       11.6380   47.4150   27.3970 O.co2 124  ASP124     -0.2456
     46  OD2       13.5160   47.5770   28.5260 O.co2 124  ASP124     -0.2456
     47  N          8.3430   43.5290   19.2610 N.3   131  ARG131     -0.1245
     48  CA         6.9200   43.2270   19.1590 C.3   131  ARG131      0.1563
     49  C          6.1510   44.4800   18.7480 C.2   131  ARG131      0.2260
     50  O          5.2450   44.4120   17.9170 O.2   131  ARG131     -0.2867
     51  CB         6.3820   42.7080   20.4940 C.3   131  ARG131      0.0307
     52  CG         6.6470   41.2260   20.7460 C.3   131  ARG131      0.0489
     53  CD         6.3390   40.8720   22.1870 C.3   131  ARG131      0.2205
     54  NE         5.0300   41.3730   22.5910 N.pl3 131  ARG131     -0.0865
     55  CZ         4.6550   41.5410   23.8540 C.cat 131  ARG131      0.5346
     56  NH1        5.4890   41.2450   24.8420 N.pl3 131  ARG131      0.1354
     57  NH2        3.4520   42.0230   24.1290 N.pl3 131  ARG131      0.1354
     58  N          6.1720   35.7200   18.8290 N.3   186  ARG186     -0.1245
     59  CA         5.5580   37.0010   18.5040 C.3   186  ARG186      0.1563
     60  C          6.5810   37.9740   17.9280 C.2   186  ARG186      0.2260
     61  O          6.2200   39.0180   17.3840 O.2   186  ARG186     -0.2867
     62  CB         4.8780   37.5960   19.7430 C.3   186  ARG186      0.0307
     63  CG         3.6840   36.7640   20.2010 C.3   186  ARG186      0.0489
     64  CD         2.7560   37.5180   21.1370 C.3   186  ARG186      0.2205
     65  NE         3.3400   37.7670   22.4520 N.pl3 186  ARG186     -0.0865
     66  CZ         2.6800   38.3330   23.4580 C.cat 186  ARG186      0.5346
     67  NH1        1.4180   38.7080   23.2920 N.pl3 186  ARG186      0.1354
     68  NH2        3.2750   38.5270   24.6260 N.pl3 186  ARG186      0.1354
     69  N         12.5490   31.0590   35.4900 N.3   230  HIS230     -0.1241
     70  CA        13.7070   31.6610   36.1340 C.3   230  HIS230      0.1621
     71  C         14.4260   30.6640   37.0410 C.2   230  HIS230      0.2264
     72  O         14.6790   30.9340   38.2180 O.2   230  HIS230     -0.2867
     73  CB        13.2970   32.9050   36.9200 C.3   230  HIS230      0.0745
     74  CG        12.9850   34.0820   36.0510 C.ar  230  HIS230      0.0817
     75  ND1       12.5810   35.2980   36.5580 N.ar  230  HIS230     -0.2268
     76  CD2       13.0360   34.2340   34.7060 C.ar  230  HIS230      0.1154
     77  CE1       12.3980   36.1490   35.5640 C.ar  230  HIS230      0.1986
     78  NE2       12.6670   35.5280   34.4300 N.ar  230  HIS230     -0.2212
     79  N          5.9300   30.1670   38.9790 N.3   235  TYR235     -0.1241
     80  CA         5.5640   31.3160   38.1500 C.3   235  TYR235      0.1605
     81  C          4.3910   31.1890   37.1850 C.2   235  TYR235      0.2264
     82  O          4.3130   31.9360   36.2040 O.2   235  TYR235     -0.2867
     83  CB         6.8000   31.7600   37.3530 C.3   235  TYR235      0.0534
     84  CG         7.3080   33.1370   37.7100 C.ar  235  TYR235     -0.0201
     85  CD1        6.4220   34.2070   37.8450 C.ar  235  TYR235     -0.0009
     86  CD2        8.6710   33.3810   37.8940 C.ar  235  TYR235     -0.0009
     87  CE1        6.8730   35.4810   38.1570 C.ar  235  TYR235      0.0417
     88  CE2        9.1380   34.6630   38.2060 C.ar  235  TYR235      0.0417
     89  CZ         8.2240   35.7070   38.3340 C.ar  235  TYR235      0.1957
     90  OH         8.6370   36.9850   38.6360 O.3   235  TYR235     -0.2866
     91  N          2.4410   34.5740   36.1070 N.3   238  ALA238     -0.1231
     92  CA         3.0570   35.7410   35.4870 C.3   238  ALA238      0.1694
     93  C          3.6670   35.2970   34.1650 C.2   238  ALA238      0.2592
     94  O          3.1880   35.6790   33.0980 O.2   238  ALA238     -0.2718
     95  CB         4.1090   36.3440   36.3990 C.3   238  ALA238      0.0304
     96  N          4.7130   34.4780   34.2200 N.am  239  PHE239     -0.1976
     97  CA         5.3060   34.0030   32.9780 C.3   239  PHE239      0.1639
     98  C          4.4000   32.9720   32.3200 C.2   239  PHE239      0.2290
     99  O          4.3930   32.8360   31.0970 O.2   239  PHE239     -0.2864
    100  CB         6.7090   33.4370   33.2190 C.3   239  PHE239      0.0560
    101  CG         7.7590   34.5020   33.3340 C.ar  239  PHE239     -0.0200
    102  CD1        8.0990   35.0390   34.5700 C.ar  239  PHE239     -0.0042
    103  CD2        8.3620   35.0170   32.1910 C.ar  239  PHE239     -0.0042
    104  CE1        9.0200   36.0820   34.6680 C.ar  239  PHE239     -0.0003
    105  CE2        9.2820   36.0580   32.2740 C.ar  239  PHE239     -0.0003
    106  CZ         9.6140   36.5910   33.5140 C.ar  239  PHE239     -0.0000
    107  N          1.9170   35.0150   30.2950 N.3   242  VAL242     -0.1245
    108  CA         2.4870   35.4620   29.0310 C.3   242  VAL242      0.1561
    109  C          2.4570   34.3180   28.0270 C.2   242  VAL242      0.2260
    110  O          2.1400   34.5090   26.8550 O.2   242  VAL242     -0.2867
    111  CB         3.9460   35.9420   29.2320 C.3   242  VAL242      0.0252
    112  CG1        4.5830   36.2740   27.8840 C.3   242  VAL242      0.0019
    113  CG2        3.9670   37.1630   30.1370 C.3   242  VAL242      0.0019
    114  N         -1.3230   33.5600   27.0050 N.3   245  ASP245     -0.1239
    115  CA        -1.8660   34.7670   26.3780 C.3   245  ASP245      0.1674
    116  C         -1.2520   34.9660   24.9890 C.2   245  ASP245      0.2266
    117  O         -1.9630   35.1620   24.0010 O.2   245  ASP245     -0.2867
    118  CB        -1.5860   35.9820   27.2780 C.3   245  ASP245      0.1410
    119  CG        -2.1680   37.2840   26.7300 C.2   245  ASP245      0.3668
    120  OD1       -3.2410   37.2510   26.0900 O.co2 245  ASP245     -0.2456
    121  OD2       -1.5550   38.3490   26.9640 O.co2 245  ASP245     -0.2456
    122  N          7.2050   38.3740   41.1250 N.3   293  ARG293     -0.1231
    123  CA         7.3870   39.8000   41.3780 C.3   293  ARG293      0.1694
    124  C          6.2960   40.7100   40.8250 C.2   293  ARG293      0.2592
    125  O          6.2600   41.8990   41.1470 O.2   293  ARG293     -0.2718
    126  CB         8.7600   40.2530   40.8590 C.3   293  ARG293      0.0321
    127  CG         8.8860   40.3610   39.3430 C.3   293  ARG293      0.0489
    128  CD        10.3070   40.7990   38.9680 C.3   293  ARG293      0.2205
    129  NE        10.3910   41.3500   37.6170 N.pl3 293  ARG293     -0.0865
    130  CZ        10.7040   40.6560   36.5280 C.cat 293  ARG293      0.5346
    131  NH1       10.9760   39.3610   36.6100 N.pl3 293  ARG293      0.1354
    132  NH2       10.7440   41.2630   35.3470 N.pl3 293  ARG293      0.1354
    133  N          5.3990   40.1580   40.0140 N.am  294  SER294     -0.1952
    134  CA         4.3160   40.9490   39.4320 C.3   294  SER294      0.1924
    135  C          3.3220   41.4640   40.4660 C.2   294  SER294      0.2314
    136  O          2.5270   42.3520   40.1700 O.2   294  SER294     -0.2863
    137  CB         3.5680   40.1330   38.3750 C.3   294  SER294      0.2116
    138  OG         4.3870   39.9220   37.2400 O.3   294  SER294     -0.2180
    139  N          3.1440   45.2970   41.0830 N.3   297  ARG297     -0.1245
    140  CA         2.7140   46.2090   40.0250 C.3   297  ARG297      0.1563
    141  C          1.2740   46.6340   40.2910 C.2   297  ARG297      0.2260
    142  O          0.3720   45.8000   40.3340 O.2   297  ARG297     -0.2867
    143  CB         2.8150   45.5200   38.6650 C.3   297  ARG297      0.0307
    144  CG         4.2320   45.1270   38.2970 C.3   297  ARG297      0.0489
    145  CD         4.2700   44.2750   37.0430 C.3   297  ARG297      0.2205
    146  NE         5.6180   43.7790   36.7790 N.pl3 297  ARG297     -0.0865
    147  CZ         5.9000   42.8150   35.9120 C.cat 297  ARG297      0.5346
    148  NH1        4.9260   42.2400   35.2210 N.pl3 297  ARG297      0.1354
    149  NH2        7.1530   42.4190   35.7450 N.pl3 297  ARG297      0.1354
    150  N         -1.5250   45.5580   37.9290 N.3   300  SER300     -0.1217
    151  CA        -1.6410   44.1220   37.7260 C.3   300  SER300      0.1889
    152  C         -2.0630   43.3450   38.9640 C.2   300  SER300      0.2288
    153  O         -1.4920   42.2990   39.2560 O.2   300  SER300     -0.2866
    154  CB        -0.3070   43.5610   37.2200 C.3   300  SER300      0.2089
    155  OG         0.0680   44.1500   35.9860 O.3   300  SER300     -0.2183
    156  N         -5.6520   38.0160   31.8640 N.3   308  GLU308     -0.1245
    157  CA        -4.6560   37.6160   30.8710 C.3   308  GLU308      0.1567
    158  C         -4.8380   36.1320   30.6050 C.2   308  GLU308      0.2260
    159  O         -4.7590   35.6730   29.4660 O.2   308  GLU308     -0.2867
    160  CB        -3.2300   37.8270   31.3800 C.3   308  GLU308      0.0388
    161  CG        -2.8010   39.2540   31.5550 C.3   308  GLU308      0.1160
    162  CD        -1.3010   39.3520   31.7520 C.2   308  GLU308      0.3649
    163  OE1       -0.7760   38.6620   32.6490 O.co2 308  GLU308     -0.2457
    164  OE2       -0.6460   40.1100   31.0080 O.co2 308  GLU308     -0.2457
    165  N         -8.5650   35.3980   28.9400 N.3   311  ARG311     -0.1245
    166  CA        -8.6830   35.7140   27.5200 C.3   311  ARG311      0.1563
    167  C         -7.9000   34.7010   26.6920 C.2   311  ARG311      0.2260
    168  O         -8.2650   34.4020   25.5540 O.2   311  ARG311     -0.2867
    169  CB        -8.2190   37.1510   27.2340 C.3   311  ARG311      0.0307
    170  CG        -6.7290   37.4120   27.3690 C.3   311  ARG311      0.0489
    171  CD        -6.4640   38.9110   27.4870 C.3   311  ARG311      0.2205
    172  NE        -5.0360   39.2180   27.4790 N.pl3 311  ARG311     -0.0865
    173  CZ        -4.5120   40.3820   27.8480 C.cat 311  ARG311      0.5346
    174  NH1       -5.2940   41.3710   28.2660 N.pl3 311  ARG311      0.1354
    175  NH2       -3.1970   40.5600   27.7970 N.pl3 311  ARG311      0.1354
    176  N         14.9480   43.5500   38.7360 N.3   411  ASN411     -0.1240
    177  CA        14.5360   44.7030   37.9510 C.3   411  ASN411      0.1653
    178  C         13.8620   45.7080   38.8800 C.2   411  ASN411      0.2266
    179  O         12.9510   46.4350   38.4840 O.2   411  ASN411     -0.2867
    180  CB        13.5960   44.2860   36.8170 C.3   411  ASN411      0.1155
    181  CG        14.2790   43.3830   35.8030 C.2   411  ASN411      0.2627
    182  OD1       15.4610   43.5550   35.5020 O.2   411  ASN411     -0.2716
    183  ND2       13.5360   42.4220   35.2640 N.am  411  ASN411     -0.0877
    184  N         11.8740   45.2210   41.2960 N.3   413  GLU413     -0.1245
    185  CA        10.4890   44.8860   41.6150 C.3   413  GLU413      0.1567
    186  C         10.3990   43.8860   42.7640 C.2   413  GLU413      0.2260
    187  O         11.2330   42.9870   42.8790 O.2   413  GLU413     -0.2867
    188  CB         9.7940   44.2990   40.3840 C.3   413  GLU413      0.0388
    189  CG         9.7550   45.2340   39.1810 C.3   413  GLU413      0.1160
    190  CD         8.8540   44.7190   38.0740 C.2   413  GLU413      0.3649
    191  OE1        9.2250   43.7340   37.4000 O.co2 413  GLU413     -0.2457
    192  OE2        7.7640   45.3000   37.8840 O.co2 413  GLU413     -0.2457
@<TRIPOS>BOND
     1    61    60    2
     2    50    49    2
     3    60    59    1
     4    59    58    1
     5    59    62    1
     6    49    48    1
     7    48    47    1
     8    48    51    1
     9    62    63    1
    10    63    64    1
    11    51    52    1
    12    52    53    1
    13     9     8    2
    14    64    65    1
    15     6     7    1
    16     8     7    1
    17     7    10    1
    18    53    54    1
    19    65    66    2
    20    54    55    2
    21    10    11    1
    22    42    41    2
    23    67    66    1
    24    11    12    1
    25    66    68    1
    26    55    57    1
    27    55    56    1
    28   117   116    2
    29    41    40    1
    30    12    13    1
    31    13    14    2
    32   116   115    1
    33    28    27    2
    34   168   167    2
    35    40    43    1
    36    40    39    1
    37    15    14    1
    38    14    16    1
    39   120   119   ar
    40    43    44    1
    41    27    39   am
    42    27    26    1
    43   115   114    1
    44   115   118    1
    45   167   166    1
    46   119   121   ar
    47   119   118    1
    48   110   109    2
    49    26    25    1
    50    26    29    1
    51   169   170    1
    52   169   166    1
    53    38    37   ar
    54    38    36   ar
    55   170   171    1
    56    37    35   ar
    57    45    44   ar
    58    36    34   ar
    59    44    46   ar
    60    20    19    2
    61   172   171    1
    62   172   173    2
    63   166   165    1
    64     4     3    2
    65    35    32   ar
    66    34    32   ar
    67    34    33   ar
    68   175   173    1
    69   173   174    1
    70   112   111    1
    71    32    30   ar
    72    33    31   ar
    73   109   108    1
    74     3     2    1
    75    30    31   ar
    76    30    29    1
    77    19    18    1
    78     1     2    1
    79     2     5    1
    80   108   111    1
    81   108   107    1
    82   111   113    1
    83   159   158    2
    84    17    18    1
    85    18    21    1
    86    23    22    2
    87    21    22    1
    88   158   157    1
    89    22    24   am
    90   157   160    1
    91   157   156    1
    92   164   162   ar
    93    99    98    2
    94   160   161    1
    95   161   162    1
    96   162   163   ar
    97   103   105   ar
    98   103   101   ar
    99   105   106   ar
   100    98    97    1
   101    97   100    1
   102    97    96    1
   103    94    93    2
   104   100   101    1
   105   101   102   ar
   106   106   104   ar
   107    93    96   am
   108    93    92    1
   109    78    76   ar
   110    78    77   ar
   111   102   104   ar
   112    76    74   ar
   113   148   147    1
   114   183   181   am
   115   132   130    1
   116    92    91    1
   117    92    95    1
   118    69    70    1
   119   182   181    2
   120    77    75   ar
   121   149   147    1
   122   181   180    1
   123   147   146    2
   124   155   154    1
   125    74    75   ar
   126    74    73    1
   127    70    73    1
   128    70    71    1
   129    82    81    2
   130   130   131    1
   131   130   129    2
   132   146   145    1
   133   180   177    1
   134    71    72    2
   135   145   144    1
   136    81    80    1
   137   154   151    1
   138   138   137    1
   139    83    84    1
   140    83    80    1
   141   191   190   ar
   142   129   128    1
   143    84    85   ar
   144    84    86   ar
   145   151   150    1
   146   151   152    1
   147    85    87   ar
   148   192   190   ar
   149    86    88   ar
   150   177   176    1
   151   177   178    1
   152   190   189    1
   153    80    79    1
   154    87    89   ar
   155    88    89   ar
   156   144   143    1
   157    89    90    1
   158   137   134    1
   159   179   178    2
   160   143   140    1
   161   152   153    2
   162   128   127    1
   163   189   188    1
   164   127   126    1
   165   134   133    1
   166   134   135    1
   167   133   124   am
   168   140   141    1
   169   140   139    1
   170   136   135    2
   171   141   142    2
   172   188   185    1
   173   124   125    2
   174   124   123    1
   175   126   123    1
   176   122   123    1
   177   184   185    1
   178   185   186    1
   179   186   187    2
