@<TRIPOS>MOLECULE
tmp/1ojoA00.pdb
 187 175 0 0 0
SMALL
GASTEIGER

@<TRIPOS>ATOM
      1  N          5.6460   51.2600   21.1390 N.3    74  ARG74      -0.1245
      2  CA         4.2760   50.8690   21.4460 C.3    74  ARG74       0.1563
      3  C          3.3120   52.0150   21.1500 C.2    74  ARG74       0.2260
      4  O          2.1480   51.7840   20.8250 O.2    74  ARG74      -0.2867
      5  CB         4.1540   50.4050   22.9020 C.3    74  ARG74       0.0307
      6  CG         4.7100   49.0010   23.0940 C.3    74  ARG74       0.0489
      7  CD         4.4550   48.4230   24.4710 C.3    74  ARG74       0.2205
      8  NE         4.8460   47.0150   24.5080 N.pl3  74  ARG74      -0.0865
      9  CZ         4.8060   46.2450   25.5920 C.cat  74  ARG74       0.5346
     10  NH1        5.1840   44.9750   25.5130 N.pl3  74  ARG74       0.1354
     11  NH2        4.3960   46.7390   26.7520 N.pl3  74  ARG74       0.1354
     12  N         18.2360   46.5200   29.3900 N.3   121  ASN121     -0.1240
     13  CA        17.6450   45.1860   29.4530 C.3   121  ASN121      0.1653
     14  C         17.4670   44.5350   28.0810 C.2   121  ASN121      0.2266
     15  O         16.8840   45.1240   27.1660 O.2   121  ASN121     -0.2867
     16  CB        16.2950   45.2530   30.1720 C.3   121  ASN121      0.1155
     17  CG        15.8500   43.9060   30.7020 C.2   121  ASN121      0.2627
     18  OD1       15.6670   42.9550   29.9450 O.2   121  ASN121     -0.2716
     19  ND2       15.6800   43.8170   32.0160 N.am  121  ASN121     -0.0877
     20  N         15.5210   42.2330   27.2180 N.3   123  TRP123     -0.1227
     21  CA        14.1130   41.9920   26.9150 C.3   123  TRP123      0.1737
     22  C         13.5110   43.0220   25.9620 C.2   123  TRP123      0.2595
     23  O         12.7340   42.6740   25.0720 O.2   123  TRP123     -0.2718
     24  CB        13.2910   41.9610   28.2020 C.3   123  TRP123      0.0564
     25  CG        11.8850   41.4750   27.9940 C.ar  123  TRP123      0.0003
     26  CD1       11.4410   40.1830   28.0610 C.ar  123  TRP123      0.0946
     27  CD2       10.7420   42.2760   27.6690 C.ar  123  TRP123      0.0152
     28  NE1       10.0920   40.1310   27.8010 N.ar  123  TRP123     -0.2442
     29  CE2        9.6370   41.4010   27.5570 C.ar  123  TRP123      0.0810
     30  CE3       10.5430   43.6500   27.4610 C.ar  123  TRP123      0.0012
     31  CZ2        8.3480   41.8550   27.2480 C.ar  123  TRP123      0.0191
     32  CZ3        9.2580   44.1020   27.1540 C.ar  123  TRP123      0.0001
     33  CH2        8.1800   43.2050   27.0510 C.ar  123  TRP123      0.0015
     34  N         13.8560   44.2880   26.1600 N.am  124  ASP124     -0.1974
     35  CA        13.3440   45.3520   25.3060 C.3   124  ASP124      0.1709
     36  C         13.9090   45.2380   23.8960 C.2   124  ASP124      0.2293
     37  O         13.2030   45.4630   22.9130 O.2   124  ASP124     -0.2864
     38  CB        13.6990   46.7190   25.8900 C.3   124  ASP124      0.1436
     39  CG        12.9670   47.0100   27.1820 C.2   124  ASP124      0.3671
     40  OD1       11.7160   46.9770   27.1820 O.co2 124  ASP124     -0.2456
     41  OD2       13.6410   47.2780   28.1970 O.co2 124  ASP124     -0.2456
     42  N          8.3770   43.1610   18.9970 N.3   131  ARG131     -0.1245
     43  CA         6.9510   42.8660   18.8950 C.3   131  ARG131      0.1563
     44  C          6.1790   44.1240   18.4990 C.2   131  ARG131      0.2260
     45  O          5.2570   44.0590   17.6910 O.2   131  ARG131     -0.2867
     46  CB         6.4140   42.3320   20.2270 C.3   131  ARG131      0.0307
     47  CG         6.6540   40.8420   20.4590 C.3   131  ARG131      0.0489
     48  CD         6.3710   40.4880   21.9070 C.3   131  ARG131      0.2205
     49  NE         5.0820   41.0180   22.3440 N.pl3 131  ARG131     -0.0865
     50  CZ         4.7260   41.1620   23.6160 C.cat 131  ARG131      0.5346
     51  NH1        5.5600   40.8110   24.5890 N.pl3 131  ARG131      0.1354
     52  NH2        3.5430   41.6740   23.9180 N.pl3 131  ARG131      0.1354
     53  N          6.1650   35.3510   18.5780 N.3   186  ARG186     -0.1245
     54  CA         5.5630   36.6360   18.2480 C.3   186  ARG186      0.1563
     55  C          6.5960   37.6130   17.6980 C.2   186  ARG186      0.2260
     56  O          6.2500   38.6920   17.2160 O.2   186  ARG186     -0.2867
     57  CB         4.8600   37.2250   19.4780 C.3   186  ARG186      0.0307
     58  CG         3.6630   36.3840   19.9240 C.3   186  ARG186      0.0489
     59  CD         2.7280   37.1310   20.8700 C.3   186  ARG186      0.2205
     60  NE         3.3220   37.4030   22.1770 N.pl3 186  ARG186     -0.0865
     61  CZ         2.6650   37.9710   23.1840 C.cat 186  ARG186      0.5346
     62  NH1        1.3950   38.3220   23.0300 N.pl3 186  ARG186      0.1354
     63  NH2        3.2730   38.1910   24.3420 N.pl3 186  ARG186      0.1354
     64  N         12.5350   30.8230   35.2910 N.3   230  HIS230     -0.1241
     65  CA        13.6860   31.4350   35.9360 C.3   230  HIS230      0.1621
     66  C         14.4050   30.4390   36.8410 C.2   230  HIS230      0.2264
     67  O         14.6670   30.7150   38.0120 O.2   230  HIS230     -0.2867
     68  CB        13.2640   32.6620   36.7360 C.3   230  HIS230      0.0745
     69  CG        12.9380   33.8480   35.8840 C.ar  230  HIS230      0.0817
     70  ND1       12.5150   35.0500   36.4090 N.ar  230  HIS230     -0.2268
     71  CD2       12.9940   34.0210   34.5420 C.ar  230  HIS230      0.1154
     72  CE1       12.3260   35.9130   35.4270 C.ar  230  HIS230      0.1986
     73  NE2       12.6090   35.3140   34.2850 N.ar  230  HIS230     -0.2212
     74  N          5.9300   29.9580   38.7850 N.3   235  TYR235     -0.1241
     75  CA         5.5560   31.1010   37.9570 C.3   235  TYR235      0.1605
     76  C          4.3680   30.9720   37.0160 C.2   235  TYR235      0.2264
     77  O          4.2670   31.7310   36.0470 O.2   235  TYR235     -0.2867
     78  CB         6.7850   31.5330   37.1440 C.3   235  TYR235      0.0534
     79  CG         7.2900   32.9200   37.4730 C.ar  235  TYR235     -0.0201
     80  CD1        6.3970   33.9830   37.6070 C.ar  235  TYR235     -0.0009
     81  CD2        8.6550   33.1780   37.6360 C.ar  235  TYR235     -0.0009
     82  CE1        6.8380   35.2640   37.8980 C.ar  235  TYR235      0.0417
     83  CE2        9.1120   34.4690   37.9280 C.ar  235  TYR235      0.0417
     84  CZ         8.1910   35.5060   38.0580 C.ar  235  TYR235      0.1957
     85  OH         8.5960   36.7890   38.3540 O.3   235  TYR235     -0.2866
     86  N          2.4280   34.3540   35.8670 N.3   238  ALA238     -0.1231
     87  CA         3.0300   35.5230   35.2300 C.3   238  ALA238      0.1694
     88  C          3.6450   35.0630   33.9200 C.2   238  ALA238      0.2592
     89  O          3.1860   35.4510   32.8470 O.2   238  ALA238     -0.2718
     90  CB         4.0780   36.1530   36.1360 C.3   238  ALA238      0.0304
     91  N          4.6730   34.2220   33.9920 N.am  239  PHE239     -0.1976
     92  CA         5.2740   33.7240   32.7620 C.3   239  PHE239      0.1639
     93  C          4.3590   32.6910   32.1250 C.2   239  PHE239      0.2290
     94  O          4.3430   32.5310   30.9040 O.2   239  PHE239     -0.2864
     95  CB         6.6730   33.1590   33.0240 C.3   239  PHE239      0.0560
     96  CG         7.7210   34.2250   33.1130 C.ar  239  PHE239     -0.0200
     97  CD1        8.0160   34.8370   34.3260 C.ar  239  PHE239     -0.0042
     98  CD2        8.3480   34.6870   31.9590 C.ar  239  PHE239     -0.0042
     99  CE1        8.9180   35.9000   34.3900 C.ar  239  PHE239     -0.0003
    100  CE2        9.2480   35.7470   32.0070 C.ar  239  PHE239     -0.0003
    101  CZ         9.5340   36.3570   33.2240 C.ar  239  PHE239     -0.0000
    102  N          1.9070   34.7380   30.0790 N.3   242  VAL242     -0.1245
    103  CA         2.4890   35.1660   28.8120 C.3   242  VAL242      0.1561
    104  C          2.4590   34.0170   27.8160 C.2   242  VAL242      0.2260
    105  O          2.1550   34.2020   26.6370 O.2   242  VAL242     -0.2867
    106  CB         3.9550   35.6320   29.0150 C.3   242  VAL242      0.0252
    107  CG1        4.6210   35.8920   27.6670 C.3   242  VAL242      0.0019
    108  CG2        3.9850   36.8900   29.8650 C.3   242  VAL242      0.0019
    109  N         -1.3200   33.2660   26.8190 N.3   245  ASP245     -0.1239
    110  CA        -1.8710   34.4630   26.1900 C.3   245  ASP245      0.1674
    111  C         -1.2550   34.6560   24.8030 C.2   245  ASP245      0.2266
    112  O         -1.9700   34.8230   23.8160 O.2   245  ASP245     -0.2867
    113  CB        -1.6090   35.6810   27.0890 C.3   245  ASP245      0.1410
    114  CG        -2.1480   36.9870   26.5080 C.2   245  ASP245      0.3668
    115  OD1       -3.2060   36.9720   25.8450 O.co2 245  ASP245     -0.2456
    116  OD2       -1.5160   38.0400   26.7420 O.co2 245  ASP245     -0.2456
    117  N          7.1920   38.1890   40.8470 N.3   293  ARG293     -0.1231
    118  CA         7.3640   39.6150   41.1040 C.3   293  ARG293      0.1694
    119  C          6.2720   40.5160   40.5390 C.2   293  ARG293      0.2592
    120  O          6.2410   41.7090   40.8440 O.2   293  ARG293     -0.2718
    121  CB         8.7350   40.0850   40.5950 C.3   293  ARG293      0.0321
    122  CG         8.8670   40.2070   39.0770 C.3   293  ARG293      0.0489
    123  CD        10.2950   40.6330   38.7070 C.3   293  ARG293      0.2205
    124  NE        10.3810   41.2380   37.3800 N.pl3 293  ARG293     -0.0865
    125  CZ        10.6430   40.5830   36.2540 C.cat 293  ARG293      0.5346
    126  NH1       10.8590   39.2740   36.2650 N.pl3 293  ARG293      0.1354
    127  NH2       10.6880   41.2460   35.1050 N.pl3 293  ARG293      0.1354
    128  N          5.3730   39.9560   39.7350 N.am  294  SER294     -0.1952
    129  CA         4.2890   40.7470   39.1480 C.3   294  SER294      0.1924
    130  C          3.2970   41.2730   40.1770 C.2   294  SER294      0.2314
    131  O          2.5050   42.1670   39.8760 O.2   294  SER294     -0.2863
    132  CB         3.5330   39.9320   38.1000 C.3   294  SER294      0.2116
    133  OG         4.3360   39.7350   36.9550 O.3   294  SER294     -0.2180
    134  N          3.1220   45.1030   40.8040 N.3   297  ARG297     -0.1245
    135  CA         2.6860   46.0110   39.7440 C.3   297  ARG297      0.1563
    136  C          1.2520   46.4410   40.0120 C.2   297  ARG297      0.2260
    137  O          0.3520   45.6080   40.0800 O.2   297  ARG297     -0.2867
    138  CB         2.7730   45.3130   38.3900 C.3   297  ARG297      0.0307
    139  CG         4.1820   44.8900   38.0320 C.3   297  ARG297      0.0489
    140  CD         4.2070   44.0430   36.7800 C.3   297  ARG297      0.2205
    141  NE         5.5500   43.5450   36.5160 N.pl3 297  ARG297     -0.0865
    142  CZ         5.8260   42.5460   35.6860 C.cat 297  ARG297      0.5346
    143  NH1        4.8480   41.9320   35.0330 N.pl3 297  ARG297      0.1354
    144  NH2        7.0800   42.1520   35.5220 N.pl3 297  ARG297      0.1354
    145  N         -1.5310   45.3300   37.6370 N.3   300  SER300     -0.1217
    146  CA        -1.6490   43.8900   37.4480 C.3   300  SER300      0.1889
    147  C         -2.0730   43.1190   38.6900 C.2   300  SER300      0.2288
    148  O         -1.5130   42.0600   38.9850 O.2   300  SER300     -0.2866
    149  CB        -0.3140   43.3250   36.9450 C.3   300  SER300      0.2089
    150  OG         0.0720   43.9360   35.7240 O.3   300  SER300     -0.2183
    151  N         -5.6220   37.7200   31.6160 N.3   308  GLU308     -0.1245
    152  CA        -4.6260   37.2940   30.6380 C.3   308  GLU308      0.1567
    153  C         -4.8130   35.8080   30.3900 C.2   308  GLU308      0.2260
    154  O         -4.7140   35.3300   29.2580 O.2   308  GLU308     -0.2867
    155  CB        -3.2000   37.5180   31.1500 C.3   308  GLU308      0.0388
    156  CG        -2.7690   38.9550   31.2720 C.3   308  GLU308      0.1160
    157  CD        -1.2720   39.0640   31.4890 C.2   308  GLU308      0.3649
    158  OE1       -0.7490   38.3670   32.3800 O.co2 308  GLU308     -0.2457
    159  OE2       -0.6170   39.8430   30.7670 O.co2 308  GLU308     -0.2457
    160  N         -8.5590   35.1070   28.7170 N.3   311  ARG311     -0.1245
    161  CA        -8.6670   35.4150   27.2910 C.3   311  ARG311      0.1563
    162  C         -7.8890   34.3890   26.4720 C.2   311  ARG311      0.2260
    163  O         -8.2560   34.0720   25.3360 O.2   311  ARG311     -0.2867
    164  CB        -8.1850   36.8450   27.0000 C.3   311  ARG311      0.0307
    165  CG        -6.6980   37.0990   27.1910 C.3   311  ARG311      0.0489
    166  CD        -6.4210   38.6000   27.2620 C.3   311  ARG311      0.2205
    167  NE        -4.9920   38.8970   27.2290 N.pl3 311  ARG311     -0.0865
    168  CZ        -4.4580   40.0610   27.5770 C.cat 311  ARG311      0.5346
    169  NH1       -5.2310   41.0540   27.9940 N.pl3 311  ARG311      0.1354
    170  NH2       -3.1430   40.2360   27.4990 N.pl3 311  ARG311      0.1354
    171  N         14.8940   43.3390   38.4350 N.3   411  ASN411     -0.1240
    172  CA        14.4590   44.4650   37.6170 C.3   411  ASN411      0.1653
    173  C         13.8080   45.4990   38.5220 C.2   411  ASN411      0.2266
    174  O         12.9200   46.2430   38.1060 O.2   411  ASN411     -0.2867
    175  CB        13.4850   44.0160   36.5230 C.3   411  ASN411      0.1155
    176  CG        14.1670   43.1960   35.4400 C.2   411  ASN411      0.2627
    177  OD1       15.3920   43.0660   35.4240 O.2   411  ASN411     -0.2716
    178  ND2       13.3770   42.6440   34.5260 N.am  411  ASN411     -0.0877
    179  N         11.8170   45.0570   40.9680 N.3   413  GLU413     -0.1245
    180  CA        10.4380   44.7290   41.3130 C.3   413  GLU413      0.1567
    181  C         10.3530   43.7360   42.4720 C.2   413  GLU413      0.2260
    182  O         11.1950   42.8470   42.6000 O.2   413  GLU413     -0.2867
    183  CB         9.7270   44.1350   40.0950 C.3   413  GLU413      0.0388
    184  CG         9.7060   45.0440   38.8780 C.3   413  GLU413      0.1160
    185  CD         8.7670   44.5320   37.8010 C.2   413  GLU413      0.3649
    186  OE1        9.1020   43.5350   37.1270 O.co2 413  GLU413     -0.2457
    187  OE2        7.6800   45.1240   37.6390 O.co2 413  GLU413     -0.2457
@<TRIPOS>BOND
     1    56    55    2
     2    45    44    2
     3    55    54    1
     4    54    53    1
     5    54    57    1
     6    44    43    1
     7    43    42    1
     8    43    46    1
     9    57    58    1
    10    58    59    1
    11    46    47    1
    12    47    48    1
    13     4     3    2
    14    59    60    1
    15     1     2    1
    16     3     2    1
    17     2     5    1
    18    48    49    1
    19    60    61    2
    20    49    50    2
    21     5     6    1
    22    37    36    2
    23    62    61    1
    24     6     7    1
    25    61    63    1
    26    50    52    1
    27    50    51    1
    28   112   111    2
    29    36    35    1
    30     7     8    1
    31     8     9    2
    32   111   110    1
    33    23    22    2
    34    35    38    1
    35    35    34    1
    36   163   162    2
    37    10     9    1
    38     9    11    1
    39   115   114   ar
    40    38    39    1
    41    22    34   am
    42    22    21    1
    43   110   109    1
    44   110   113    1
    45   162   161    1
    46   114   116   ar
    47   114   113    1
    48   105   104    2
    49    21    20    1
    50    21    24    1
    51   164   165    1
    52   164   161    1
    53    33    32   ar
    54    33    31   ar
    55    32    30   ar
    56    15    14    2
    57    40    39   ar
    58    39    41   ar
    59   165   166    1
    60   167   166    1
    61   167   168    2
    62    31    29   ar
    63   161   160    1
    64    30    27   ar
    65   170   168    1
    66    29    27   ar
    67    29    28   ar
    68   168   169    1
    69   107   106    1
    70    27    25   ar
    71    28    26   ar
    72   104   103    1
    73    25    26   ar
    74    25    24    1
    75    14    13    1
    76   103   106    1
    77   103   102    1
    78   106   108    1
    79   154   153    2
    80    12    13    1
    81    13    16    1
    82    18    17    2
    83    16    17    1
    84   153   152    1
    85   152   155    1
    86   152   151    1
    87    17    19   am
    88   159   157   ar
    89    94    93    2
    90   155   156    1
    91   156   157    1
    92   157   158   ar
    93    98   100   ar
    94    98    96   ar
    95   100   101   ar
    96    93    92    1
    97    92    95    1
    98    92    91    1
    99    89    88    2
   100    95    96    1
   101    96    97   ar
   102   101    99   ar
   103    88    91   am
   104    88    87    1
   105    73    71   ar
   106    73    72   ar
   107    97    99   ar
   108   178   176   am
   109    71    69   ar
   110   143   142    1
   111   127   125    1
   112    87    86    1
   113    87    90    1
   114    64    65    1
   115   177   176    2
   116    72    70   ar
   117   176   175    1
   118   144   142    1
   119   142   141    2
   120   150   149    1
   121    69    70   ar
   122    69    68    1
   123    65    68    1
   124    65    66    1
   125    77    76    2
   126   125   126    1
   127   125   124    2
   128   141   140    1
   129   175   172    1
   130   140   139    1
   131    66    67    2
   132   149   146    1
   133   133   132    1
   134    76    75    1
   135   186   185   ar
   136    78    79    1
   137    78    75    1
   138   124   123    1
   139   146   145    1
   140   146   147    1
   141    79    80   ar
   142    79    81   ar
   143    80    82   ar
   144   172   171    1
   145   172   173    1
   146    81    83   ar
   147   187   185   ar
   148   185   184    1
   149    82    84   ar
   150    83    84   ar
   151    75    74    1
   152   139   138    1
   153    84    85    1
   154   132   129    1
   155   174   173    2
   156   138   135    1
   157   147   148    2
   158   123   122    1
   159   184   183    1
   160   122   121    1
   161   129   128    1
   162   129   130    1
   163   128   119   am
   164   135   136    1
   165   135   134    1
   166   131   130    2
   167   136   137    2
   168   183   180    1
   169   119   120    2
   170   119   118    1
   171   121   118    1
   172   117   118    1
   173   179   180    1
   174   180   181    1
   175   181   182    2
