@<TRIPOS>MOLECULE
tmp/1ojzA00.pdb
 246 235 0 0 0
SMALL
GASTEIGER

@<TRIPOS>ATOM
      1  N          3.1130  -11.1130    1.4650 N.3    36  TYR36      -0.1227
      2  CA         3.4060   -9.9350    2.2650 C.3    36  TYR36       0.1736
      3  C          2.1690   -9.5140    3.0540 C.2    36  TYR36       0.2596
      4  O          2.2500   -9.2310    4.2540 O.2    36  TYR36      -0.2718
      5  CB         3.8730   -8.7720    1.3830 C.3    36  TYR36       0.0548
      6  CG         4.2990   -7.5740    2.1950 C.ar   36  TYR36      -0.0200
      7  CD1        5.5230   -7.5600    2.8620 C.ar   36  TYR36      -0.0009
      8  CD2        3.4490   -6.4890    2.3650 C.ar   36  TYR36      -0.0009
      9  CE1        5.8840   -6.4940    3.6850 C.ar   36  TYR36       0.0417
     10  CE2        3.7970   -5.4230    3.1840 C.ar   36  TYR36       0.0417
     11  CZ         5.0100   -5.4330    3.8420 C.ar   36  TYR36       0.1957
     12  OH         5.3260   -4.3910    4.6790 O.3    36  TYR36      -0.2866
     13  N          1.0260   -9.4750    2.3790 N.am   37  THR37      -0.1953
     14  CA        -0.2220   -9.0880    3.0270 C.3    37  THR37       0.1897
     15  C         -0.6110  -10.0730    4.1310 C.2    37  THR37       0.2313
     16  O         -1.2400   -9.6940    5.1150 O.2    37  THR37      -0.2863
     17  CB        -1.3950   -9.0060    2.0100 C.3    37  THR37       0.1794
     18  OG1       -1.7660  -10.3240    1.5830 O.3    37  THR37      -0.2208
     19  CG2       -0.9850   -8.2000    0.7960 C.3    37  THR37       0.0378
     20  N          3.7270  -10.1470    6.8560 N.3    40  SER40      -0.1217
     21  CA         4.7470   -9.1480    6.5430 C.3    40  SER40       0.1889
     22  C          5.8000   -8.8670    7.6170 C.2    40  SER40       0.2288
     23  O          6.8340   -8.2580    7.3220 O.2    40  SER40      -0.2866
     24  CB         4.0690   -7.8260    6.1700 C.3    40  SER40       0.2089
     25  OG         3.3540   -7.2890    7.2740 O.3    40  SER40      -0.2183
     26  N          9.2490   -6.4810    7.1430 N.3    44  ASN44      -0.1240
     27  CA         9.3150   -5.0990    7.5980 C.3    44  ASN44       0.1653
     28  C          9.9840   -4.8630    8.9530 C.2    44  ASN44       0.2266
     29  O         10.5620   -3.8030    9.1640 O.2    44  ASN44      -0.2867
     30  CB         7.9160   -4.4550    7.5630 C.3    44  ASN44       0.1155
     31  CG         6.9820   -4.9770    8.6470 C.2    44  ASN44       0.2627
     32  OD1        5.7580   -4.8190    8.5530 O.2    44  ASN44      -0.2716
     33  ND2        7.5430   -5.5770    9.6840 N.am   44  ASN44      -0.0877
     34  N         12.9320   -2.2270    9.3450 N.3    48  ARG48      -0.1245
     35  CA        12.8560   -1.1040   10.2660 C.3    48  ARG48       0.1563
     36  C         14.0190   -1.1090   11.2570 C.2    48  ARG48       0.2260
     37  O         14.5230   -0.0490   11.6330 O.2    48  ARG48      -0.2867
     38  CB        11.5130   -1.1120   11.0000 C.3    48  ARG48       0.0307
     39  CG        10.3820   -0.5490   10.1570 C.3    48  ARG48       0.0489
     40  CD         9.0130   -0.8660   10.7330 C.3    48  ARG48       0.2205
     41  NE         7.9440   -0.3860    9.8600 N.pl3  48  ARG48      -0.0865
     42  CZ         6.7000   -0.8600    9.8690 C.cat  48  ARG48       0.5346
     43  NH1        6.3640   -1.8300   10.7060 N.pl3  48  ARG48       0.1354
     44  NH2        5.7940   -0.3710    9.0330 N.pl3  48  ARG48       0.1354
     45  N         -4.7060    6.5540    2.3350 N.3    84  TYR84      -0.1227
     46  CA        -4.7100    6.6840    3.7820 C.3    84  TYR84       0.1736
     47  C         -4.0380    5.5500    4.5420 C.2    84  TYR84       0.2595
     48  O         -4.3450    4.3780    4.3400 O.2    84  TYR84      -0.2718
     49  CB        -6.1530    6.8490    4.2700 C.3    84  TYR84       0.0548
     50  CG        -6.8460    8.0490    3.6610 C.ar   84  TYR84      -0.0200
     51  CD1       -7.3660    8.0010    2.3660 C.ar   84  TYR84      -0.0009
     52  CD2       -6.9280    9.2490    4.3590 C.ar   84  TYR84      -0.0009
     53  CE1       -7.9490    9.1300    1.7820 C.ar   84  TYR84       0.0417
     54  CE2       -7.5010   10.3750    3.7950 C.ar   84  TYR84       0.0417
     55  CZ        -8.0090   10.3150    2.5060 C.ar   84  TYR84       0.1957
     56  OH        -8.5530   11.4540    1.9490 O.3    84  TYR84      -0.2866
     57  N         -3.1130    5.9230    5.4200 N.am   85  ARG85      -0.1966
     58  CA        -2.4110    4.9570    6.2410 C.3    85  ARG85       0.1729
     59  C         -2.9410    5.1420    7.6690 C.2    85  ARG85       0.2616
     60  O         -2.6080    6.1170    8.3460 O.2    85  ARG85      -0.2715
     61  CB        -0.8920    5.2010    6.1680 C.3    85  ARG85       0.0348
     62  CG        -0.0650    4.0940    6.8270 C.3    85  ARG85       0.0492
     63  CD         1.4470    4.2640    6.6610 C.3    85  ARG85       0.2205
     64  NE         2.1690    3.1810    7.3360 N.pl3  85  ARG85      -0.0865
     65  CZ         3.4110    3.2790    7.8050 C.cat  85  ARG85       0.5346
     66  NH1        4.0920    4.4130    7.6700 N.pl3  85  ARG85       0.1354
     67  NH2        3.9610    2.2530    8.4390 N.pl3  85  ARG85       0.1354
     68  N         -3.8020    4.2260    8.1050 N.am   86  LEU86      -0.1963
     69  CA        -4.3610    4.3030    9.4470 C.3    86  LEU86       0.1728
     70  C         -3.3560    3.7260   10.4340 C.2    86  LEU86       0.2616
     71  O         -2.8450    2.6250   10.2430 O.2    86  LEU86      -0.2715
     72  CB        -5.6980    3.5590    9.5070 C.3    86  LEU86       0.0311
     73  CG        -6.8960    4.3890    9.0250 C.3    86  LEU86       0.0022
     74  CD1       -6.6160    4.9680    7.6380 C.3    86  LEU86       0.0001
     75  CD2       -8.1470    3.5210    8.9930 C.3    86  LEU86       0.0001
     76  N         -3.0660    4.4820   11.4880 N.am   87  LEU87      -0.1963
     77  CA        -2.0760    4.0550   12.4640 C.3    87  LEU87       0.1728
     78  C         -2.5430    4.2040   13.9080 C.2    87  LEU87       0.2616
     79  O         -3.4960    4.9310   14.1960 O.2    87  LEU87      -0.2715
     80  CB        -0.7950    4.8750   12.2600 C.3    87  LEU87       0.0311
     81  CG        -0.1840    4.8310   10.8550 C.3    87  LEU87       0.0022
     82  CD1        0.7160    6.0500   10.6430 C.3    87  LEU87       0.0001
     83  CD2        0.5870    3.5340   10.6730 C.3    87  LEU87       0.0001
     84  N         -1.8530    3.5030   14.8060 N.am   88  ASN88      -0.1972
     85  CA        -2.1360    3.5530   16.2340 C.3    88  ASN88       0.1688
     86  C         -1.2210    4.6280   16.8420 C.2    88  ASN88       0.2292
     87  O         -0.2990    5.1130   16.1810 O.2    88  ASN88      -0.2864
     88  CB        -1.8720    2.1840   16.8780 C.3    88  ASN88       0.1181
     89  CG        -2.8120    1.1020   16.3550 C.2    88  ASN88       0.2629
     90  OD1       -4.0270    1.2710   16.3640 O.2    88  ASN88      -0.2716
     91  ND2       -2.2490   -0.0090   15.8970 N.am   88  ASN88      -0.0877
     92  N          1.1320    4.4180   18.8700 N.3    90  ASP90      -0.1225
     93  CA         2.5270    4.0160   19.0280 C.3    90  ASP90       0.1805
     94  C          3.3990    4.7010   17.9720 C.2    90  ASP90       0.2597
     95  O          4.5880    4.9360   18.1860 O.2    90  ASP90      -0.2718
     96  CB         2.6700    2.4930   18.9060 C.3    90  ASP90       0.1424
     97  CG         2.1140    1.9540   17.6040 C.2    90  ASP90       0.3668
     98  OD1        2.2770    0.7440   17.3380 O.co2  90  ASP90      -0.2456
     99  OD2        1.5100    2.7390   16.8460 O.co2  90  ASP90      -0.2456
    100  N          2.7930    5.0180   16.8330 N.am   91  TYR91      -0.1976
    101  CA         3.4910    5.6790   15.7360 C.3    91  TYR91       0.1639
    102  C          4.1590    6.9620   16.2070 C.2    91  TYR91       0.2290
    103  O          5.2550    7.2970   15.7620 O.2    91  TYR91      -0.2864
    104  CB         2.5020    5.9910   14.6060 C.3    91  TYR91       0.0560
    105  CG         3.0120    6.9520   13.5540 C.ar   91  TYR91      -0.0198
    106  CD1        3.8570    6.5210   12.5300 C.ar   91  TYR91      -0.0009
    107  CD2        2.6400    8.2970   13.5800 C.ar   91  TYR91      -0.0009
    108  CE1        4.3160    7.4110   11.5530 C.ar   91  TYR91       0.0417
    109  CE2        3.0890    9.1900   12.6190 C.ar   91  TYR91       0.0417
    110  CZ         3.9250    8.7480   11.6050 C.ar   91  TYR91       0.1957
    111  OH         4.3590    9.6460   10.6500 O.3    91  TYR91      -0.2866
    112  N          5.6310    7.6230   18.9190 N.3    93  SER93      -0.1202
    113  CA         6.8140    7.4760   19.7530 C.3    93  SER93       0.2020
    114  C          8.0470    7.8070   18.9180 C.2    93  SER93       0.2619
    115  O          9.1270    8.0420   19.4550 O.2    93  SER93      -0.2717
    116  CB         6.9130    6.0510   20.3120 C.3    93  SER93       0.2103
    117  OG         7.1300    5.0990   19.2850 O.3    93  SER93      -0.2182
    118  N          7.8670    7.8470   17.6000 N.am   94  SER94      -0.1951
    119  CA         8.9580    8.1470   16.6800 C.3    94  SER94       0.1924
    120  C          9.0840    9.6390   16.3560 C.2    94  SER94       0.2314
    121  O          9.8730   10.0230   15.4950 O.2    94  SER94      -0.2863
    122  CB         8.7690    7.3700   15.3700 C.3    94  SER94       0.2116
    123  OG         7.6890    7.8900   14.6090 O.3    94  SER94      -0.2180
    124  N         10.4590    9.2640    6.8520 N.3   132  ARG132     -0.1231
    125  CA        10.6720    8.1300    5.9630 C.3   132  ARG132      0.1694
    126  C         10.2620    6.8250    6.6110 C.2   132  ARG132      0.2592
    127  O         10.6980    6.5090    7.7140 O.2   132  ARG132     -0.2718
    128  CB        12.1450    8.0430    5.5540 C.3   132  ARG132      0.0321
    129  CG        12.4830    6.9050    4.5890 C.3   132  ARG132      0.0489
    130  CD        14.0020    6.7490    4.4960 C.3   132  ARG132      0.2205
    131  NE        14.4560    6.0710    3.2850 N.pl3 132  ARG132     -0.0865
    132  CZ        14.1300    6.4440    2.0480 C.cat 132  ARG132      0.5346
    133  NH1       13.3380    7.4850    1.8620 N.pl3 132  ARG132      0.1354
    134  NH2       14.6150    5.7950    0.9960 N.pl3 132  ARG132      0.1354
    135  N          9.4150    6.0720    5.9210 N.am  133  GLU133     -0.1966
    136  CA         8.9730    4.7780    6.4190 C.3   133  GLU133      0.1733
    137  C          9.9530    3.7380    5.8830 C.2   133  GLU133      0.2616
    138  O         10.0230    3.5240    4.6780 O.2   133  GLU133     -0.2715
    139  CB         7.5560    4.4700    5.9150 C.3   133  GLU133      0.0429
    140  CG         7.0730    3.0890    6.3080 C.3   133  GLU133      0.1163
    141  CD         7.2670    2.8280    7.7850 C.2   133  GLU133      0.3649
    142  OE1        6.7190    3.6010    8.6010 O.co2 133  GLU133     -0.2457
    143  OE2        7.9710    1.8530    8.1300 O.co2 133  GLU133     -0.2457
    144  N         10.7130    3.0960    6.7670 N.am  134  ASN134     -0.1972
    145  CA        11.6890    2.1000    6.3180 C.3   134  ASN134      0.1688
    146  C         11.0610    0.7860    5.8440 C.2   134  ASN134      0.2292
    147  O         11.6330    0.0790    5.0180 O.2   134  ASN134     -0.2864
    148  CB        12.7260    1.8250    7.4140 C.3   134  ASN134      0.1181
    149  CG        13.7190    2.9700    7.5780 C.2   134  ASN134      0.2629
    150  OD1       14.2850    3.4550    6.6000 O.2   134  ASN134     -0.2716
    151  ND2       13.9410    3.3960    8.8190 N.am  134  ASN134     -0.0877
    152  N          7.6090   -1.2660    4.1800 N.3   136  TYR136     -0.1241
    153  CA         6.7540   -0.9220    3.0530 C.3   136  TYR136      0.1605
    154  C          5.5940   -0.1780    3.7130 C.2   136  TYR136      0.2264
    155  O          5.3910   -0.3100    4.9250 O.2   136  TYR136     -0.2867
    156  CB         6.2680   -2.1960    2.3560 C.3   136  TYR136      0.0534
    157  CG         7.3720   -2.9280    1.6220 C.ar  136  TYR136     -0.0201
    158  CD1        7.6410   -2.6580    0.2750 C.ar  136  TYR136     -0.0009
    159  CD2        8.1830   -3.8460    2.2870 C.ar  136  TYR136     -0.0009
    160  CE1        8.6990   -3.2890   -0.3910 C.ar  136  TYR136      0.0417
    161  CE2        9.2400   -4.4810    1.6380 C.ar  136  TYR136      0.0417
    162  CZ         9.4910   -4.2000    0.3050 C.ar  136  TYR136      0.1957
    163  OH        10.5180   -4.8390   -0.3400 O.3   136  TYR136     -0.2866
    164  N          1.6410    0.1900    3.8960 N.3   138  SER138     -0.1202
    165  CA         0.3420   -0.3850    3.5780 C.3   138  SER138      0.2020
    166  C         -0.7290    0.6890    3.7660 C.2   138  SER138      0.2619
    167  O         -0.9850    1.1310    4.8880 O.2   138  SER138     -0.2717
    168  CB         0.0640   -1.5660    4.5110 C.3   138  SER138      0.2103
    169  OG        -1.1690   -2.1860    4.1890 O.3   138  SER138     -0.2182
    170  N         -1.3660    1.0920    2.6750 N.am  139  THR139     -0.1938
    171  CA        -2.3840    2.1380    2.7360 C.3   139  THR139      0.2028
    172  C         -3.6990    1.7280    2.0880 C.2   139  THR139      0.2642
    173  O         -3.8090    0.6490    1.5030 O.2   139  THR139     -0.2714
    174  CB        -1.8930    3.4120    2.0250 C.3   139  THR139      0.1808
    175  OG1       -1.7660    3.1490    0.6180 O.3   139  THR139     -0.2208
    176  CG2       -0.5290    3.8550    2.5880 C.3   139  THR139      0.0379
    177  N         -4.6950    2.6050    2.1970 N.am  140  GLN140     -0.1976
    178  CA        -6.0050    2.3540    1.6060 C.3   140  GLN140      0.1601
    179  C         -6.4700    3.5370    0.7550 C.2   140  GLN140      0.2287
    180  O         -6.3080    4.7030    1.1420 O.2   140  GLN140     -0.2864
    181  CB        -7.0330    2.0150    2.7040 C.3   140  GLN140      0.0394
    182  CG        -6.9590    2.8510    3.9670 C.3   140  GLN140      0.0908
    183  CD        -7.7100    2.2220    5.1430 C.2   140  GLN140      0.2608
    184  OE1       -8.9340    2.1020    5.1260 O.2   140  GLN140     -0.2717
    185  NE2       -6.9680    1.8150    6.1690 N.am  140  GLN140     -0.0878
    186  N        -10.4830   -0.1390    5.9700 N.3   146  ALA146     -0.1231
    187  CA        -9.7940   -1.0900    6.8370 C.3   146  ALA146      0.1694
    188  C         -9.2930   -0.4590    8.1360 C.2   146  ALA146      0.2591
    189  O         -8.8480    0.6870    8.1500 O.2   146  ALA146     -0.2718
    190  CB        -8.6290   -1.7050    6.0830 C.3   146  ALA146      0.0304
    191  N         -9.3620   -1.2180    9.2280 N.am  147  LEU147     -0.1980
    192  CA        -8.9010   -0.7400   10.5310 C.3   147  LEU147      0.1596
    193  C         -9.4040    0.6790   10.7930 C.2   147  LEU147      0.2287
    194  O         -8.6980    1.4910   11.3880 O.2   147  LEU147     -0.2864
    195  CB        -7.3670   -0.7390   10.5730 C.3   147  LEU147      0.0297
    196  CG        -6.5830   -2.0010   10.1800 C.3   147  LEU147      0.0022
    197  CD1       -6.8250   -2.3410    8.7260 C.3   147  LEU147      0.0001
    198  CD2       -5.1000   -1.7600   10.3930 C.3   147  LEU147      0.0001
    199  N         -8.7340    2.9150   14.0820 N.3   150  ARG150     -0.1245
    200  CA        -7.4590    3.4960   14.5160 C.3   150  ARG150      0.1563
    201  C         -7.4750    5.0190   14.6980 C.2   150  ARG150      0.2260
    202  O         -8.1120    5.7450   13.9370 O.2   150  ARG150     -0.2867
    203  CB        -6.3380    3.0900   13.5560 C.3   150  ARG150      0.0307
    204  CG        -5.9830    1.6100   13.6240 C.3   150  ARG150      0.0489
    205  CD        -4.7870    1.2890   12.7360 C.3   150  ARG150      0.2205
    206  NE        -4.2590   -0.0450   13.0070 N.pl3 150  ARG150     -0.0865
    207  CZ        -3.1810   -0.5630   12.4260 C.cat 150  ARG150      0.5346
    208  NH1       -2.5020    0.1380   11.5270 N.pl3 150  ARG150      0.1354
    209  NH2       -2.7760   -1.7870   12.7500 N.pl3 150  ARG150      0.1354
    210  N         -4.2830  -10.3400   -2.4070 N.3   173  THR173     -0.1218
    211  CA        -4.2980  -10.1270   -0.9660 C.3   173  THR173      0.1862
    212  C         -5.0720  -11.1480   -0.1330 C.2   173  THR173      0.2287
    213  O         -6.1080  -11.6710   -0.5550 O.2   173  THR173     -0.2866
    214  CB        -4.8450   -8.7260   -0.6280 C.3   173  THR173      0.1770
    215  OG1       -4.9260   -8.5860    0.7920 O.3   173  THR173     -0.2211
    216  CG2       -6.2440   -8.5210   -1.2390 C.3   173  THR173      0.0375
    217  N         -6.4080  -10.3080    2.5210 N.3   175  TYR175     -0.1241
    218  CA        -7.4660   -9.5030    3.1320 C.3   175  TYR175      0.1605
    219  C         -8.1780   -8.6150    2.1160 C.2   175  TYR175      0.2264
    220  O         -7.9490   -7.4060    2.0560 O.2   175  TYR175     -0.2867
    221  CB        -6.8860   -8.6400    4.2580 C.3   175  TYR175      0.0534
    222  CG        -6.1810   -9.4550    5.3180 C.ar  175  TYR175     -0.0201
    223  CD1       -4.8470   -9.8350    5.1620 C.ar  175  TYR175     -0.0009
    224  CD2       -6.8700   -9.9150    6.4400 C.ar  175  TYR175     -0.0009
    225  CE1       -4.2160  -10.6600    6.0990 C.ar  175  TYR175      0.0417
    226  CE2       -6.2530  -10.7400    7.3790 C.ar  175  TYR175      0.0417
    227  CZ        -4.9240  -11.1110    7.2010 C.ar  175  TYR175      0.1957
    228  OH        -4.3140  -11.9360    8.1240 O.3   175  TYR175     -0.2866
    229  N         -9.8700   -4.0860    1.5620 N.3   178  GLN178     -0.1245
    230  CA        -9.1970   -2.9820    2.2480 C.3   178  GLN178      0.1566
    231  C         -8.7170   -1.9160    1.2580 C.2   178  GLN178      0.2260
    232  O         -8.0390   -0.9690    1.6480 O.2   178  GLN178     -0.2867
    233  CB        -8.0060   -3.5010    3.0660 C.3   178  GLN178      0.0367
    234  CG        -8.3720   -4.5850    4.0680 C.3   178  GLN178      0.0905
    235  CD        -7.1750   -5.0990    4.8460 C.2   178  GLN178      0.2608
    236  OE1       -6.1220   -5.3680    4.2690 O.2   178  GLN178     -0.2717
    237  NE2       -7.3350   -5.2550    6.1600 N.am  178  GLN178     -0.0878
    238  N         -6.3920   -1.7360   -0.5250 N.3   180  GLU180     -0.1245
    239  CA        -4.9890   -1.4850   -0.2570 C.3   180  GLU180      0.1567
    240  C         -4.1150   -1.0300   -1.4150 C.2   180  GLU180      0.2260
    241  O         -4.1880   -1.5380   -2.5360 O.2   180  GLU180     -0.2867
    242  CB        -4.3450   -2.7140    0.4060 C.3   180  GLU180      0.0388
    243  CG        -2.8400   -2.5510    0.6470 C.3   180  GLU180      0.1160
    244  CD        -2.2940   -3.5450    1.6480 C.2   180  GLU180      0.3649
    245  OE1       -3.0490   -4.4550    2.0490 O.co2 180  GLU180     -0.2457
    246  OE2       -1.1110   -3.4210    2.0310 O.co2 180  GLU180     -0.2457
@<TRIPOS>BOND
     1   241   240    2
     2   210   211    1
     3   240   239    1
     4   216   214    1
     5   211   214    1
     6   211   212    1
     7   214   215    1
     8   213   212    2
     9   238   239    1
    10   160   158   ar
    11   160   162   ar
    12   163   162    1
    13   239   242    1
    14   158   157   ar
    15   162   161   ar
    16   242   243    1
    17   175   174    1
    18   243   244    1
    19   179   180    2
    20   179   178    1
    21    19    17    1
    22   134   132    1
    23   231   232    2
    24   231   230    1
    25     5     6    1
    26     5     2    1
    27     1     2    1
    28   173   172    2
    29   229   230    1
    30    18    17    1
    31   178   177    1
    32   178   181    1
    33   157   159   ar
    34   157   156    1
    35   161   159   ar
    36   244   246   ar
    37   244   245   ar
    38    53    51   ar
    39    53    55   ar
    40   133   132    1
    41    56    55    1
    42    17    14    1
    43   174   176    1
    44   174   171    1
    45   132   131    2
    46   220   219    2
    47   172   177   am
    48   172   171    1
    49   219   218    1
    50     6     8   ar
    51     6     7   ar
    52   230   233    1
    53     2     3    1
    54    45    46    1
    55   156   153    1
    56     8    10   ar
    57    51    50   ar
    58    13    14    1
    59    13     3   am
    60    55    54   ar
    61   217   218    1
    62   170   171    1
    63   170   166   am
    64   181   182    1
    65     7     9   ar
    66    14    15    1
    67   153   154    1
    68   153   152    1
    69     3     4    2
    70   233   234    1
    71   218   221    1
    72    10    11   ar
    73   131   130    1
    74   165   166    1
    75   165   164    1
    76   165   168    1
    77    50    49    1
    78    50    52   ar
    79     9    11   ar
    80   154   155    2
    81   166   167    2
    82    46    49    1
    83    46    47    1
    84    54    52   ar
    85    11    12    1
    86   182   183    1
    87   234   235    1
    88    15    16    2
    89   169   168    1
    90   221   222    1
    91   236   235    2
    92    48    47    2
    93   130   129    1
    94    47    57   am
    95   129   128    1
    96   138   137    2
    97   235   237   am
    98   147   146    2
    99   184   183    2
   100   183   185   am
   101   223   222   ar
   102   223   225   ar
   103   222   224   ar
   104    57    58    1
   105   128   125    1
   106   146   145    1
   107   137   136    1
   108   137   144   am
   109   139   140    1
   110   139   136    1
   111   135   136    1
   112   135   126   am
   113   125   126    1
   114   125   124    1
   115   186   187    1
   116   190   187    1
   117   225   227   ar
   118    61    58    1
   119    61    62    1
   120    24    21    1
   121    24    25    1
   122    58    59    1
   123   140   141    1
   124   145   144    1
   125   145   148    1
   126   224   226   ar
   127    21    20    1
   128    21    22    1
   129   150   149    2
   130   126   127    2
   131    63    62    1
   132    63    64    1
   133   187   188    1
   134    26    27    1
   135   227   226   ar
   136   227   228    1
   137    23    22    2
   138    64    65    2
   139   148   149    1
   140    30    27    1
   141    30    31    1
   142   149   151   am
   143    27    28    1
   144    74    73    1
   145    59    68   am
   146    59    60    2
   147    66    65    1
   148   141   143   ar
   149   141   142   ar
   150    65    67    1
   151    68    69    1
   152   188   189    2
   153   188   191   am
   154    32    31    2
   155    31    33   am
   156   197   196    1
   157    28    29    2
   158    75    73    1
   159    73    72    1
   160    44    42    1
   161   191   192    1
   162    34    35    1
   163    69    72    1
   164    69    70    1
   165    41    42    2
   166    41    40    1
   167    42    43    1
   168    39    40    1
   169    39    38    1
   170   196   198    1
   171   196   195    1
   172    71    70    2
   173    35    38    1
   174    35    36    1
   175    70    76   am
   176   192   195    1
   177   192   193    1
   178    82    81    1
   179   111   110    1
   180    83    81    1
   181   193   194    2
   182    81    80    1
   183    36    37    2
   184    76    77    1
   185   208   207    1
   186   108   110   ar
   187   108   106   ar
   188   110   109   ar
   189    80    77    1
   190   207   209    1
   191   207   206    2
   192    77    78    1
   193   106   105   ar
   194   109   107   ar
   195   205   206    1
   196   205   204    1
   197   105   107   ar
   198   105   104    1
   199   203   204    1
   200   203   200    1
   201    78    79    2
   202    78    84   am
   203   202   201    2
   204   199   200    1
   205   200   201    1
   206   104   101    1
   207   123   122    1
   208    84    85    1
   209   122   119    1
   210   121   120    2
   211   101   102    1
   212   101   100    1
   213   103   102    2
   214    91    89   am
   215    87    86    2
   216    85    86    1
   217    85    88    1
   218    89    90    2
   219    89    88    1
   220   120   119    1
   221   119   118    1
   222   100    94   am
   223    99    97   ar
   224    98    97   ar
   225   118   114   am
   226    97    96    1
   227    94    95    2
   228    94    93    1
   229    92    93    1
   230    96    93    1
   231   114   115    2
   232   114   113    1
   233   112   113    1
   234   117   116    1
   235   113   116    1
