@<TRIPOS>MOLECULE
tmp/1ok4A00.pdb
 116 112 0 0 0
SMALL
GASTEIGER

@<TRIPOS>ATOM
      1  N         -3.0210  131.6060   20.9150 N.3    20  ALA20      -0.1245
      2  CA        -3.0410  130.2920   21.5220 C.3    20  ALA20       0.1562
      3  C         -2.5850  130.3690   22.9770 C.2    20  ALA20       0.2260
      4  O         -1.6220  131.0380   23.2820 O.2    20  ALA20      -0.2867
      5  CB        -2.1530  129.3390   20.7220 C.3    20  ALA20       0.0290
      6  N         -2.9480  127.3020   25.4090 N.3    22  ASP22      -0.1225
      7  CA        -3.0260  125.9820   26.0380 C.3    22  ASP22       0.1805
      8  C         -1.6990  125.5990   26.6780 C.2    22  ASP22       0.2597
      9  O         -1.5470  124.4750   27.1760 O.2    22  ASP22      -0.2718
     10  CB        -3.4970  124.8900   25.0480 C.3    22  ASP22       0.1424
     11  CG        -2.6150  124.7890   23.7830 C.2    22  ASP22       0.3668
     12  OD1       -2.0890  125.8380   23.3410 O.co2  22  ASP22      -0.2456
     13  OD2       -2.4090  123.6960   23.1880 O.co2  22  ASP22      -0.2456
     14  N         -0.7780  126.5570   26.7770 N.am   23  HIS23      -0.1975
     15  CA         0.5960  126.2670   27.1370 C.3    23  HIS23       0.1656
     16  C          0.7530  125.8840   28.6070 C.2    23  HIS23       0.2291
     17  O          1.6970  125.1860   28.9650 O.2    23  HIS23      -0.2864
     18  CB         1.4590  127.4830   26.8550 C.3    23  HIS23       0.0771
     19  CG         1.4850  127.8740   25.4090 C.ar   23  HIS23       0.0820
     20  ND1        2.6510  128.2140   24.7590 N.ar   23  HIS23      -0.2267
     21  CD2        0.4960  127.9760   24.4920 C.ar   23  HIS23       0.1154
     22  CE1        2.3780  128.4920   23.5020 C.ar   23  HIS23       0.1986
     23  NE2        1.0780  128.3620   23.3140 N.ar   23  HIS23      -0.2212
     24  N          0.5290  122.1980   28.4250 N.3    26  GLU26      -0.1245
     25  CA         1.4760  121.6190   27.4690 C.3    26  GLU26       0.1567
     26  C          2.9330  121.7770   27.8700 C.2    26  GLU26       0.2260
     27  O          3.7080  120.8440   27.6780 O.2    26  GLU26      -0.2867
     28  CB         1.2760  122.2030   26.0560 C.3    26  GLU26       0.0388
     29  CG         0.0010  121.7440   25.3800 C.3    26  GLU26       0.1160
     30  CD         0.0050  120.2550   25.0460 C.2    26  GLU26       0.3649
     31  OE1        1.1070  119.7200   24.7940 O.co2  26  GLU26      -0.2457
     32  OE2       -1.0870  119.6200   25.0460 O.co2  26  GLU26      -0.2457
     33  N         -4.6530  120.1380   15.3310 N.3   142  TRP142     -0.1241
     34  CA        -3.2310  120.4000   15.4850 C.3   142  TRP142      0.1605
     35  C         -2.5640  119.1320   14.9880 C.2   142  TRP142      0.2264
     36  O         -2.6700  118.0950   15.6420 O.2   142  TRP142     -0.2867
     37  CB        -2.8550  120.5480   16.9540 C.3   142  TRP142      0.0550
     38  CG        -3.0400  121.8520   17.6620 C.ar  142  TRP142      0.0003
     39  CD1       -2.1030  122.4440   18.4650 C.ar  142  TRP142      0.0946
     40  CD2       -4.2380  122.6500   17.8030 C.ar  142  TRP142      0.0152
     41  NE1       -2.6170  123.5810   19.0370 N.ar  142  TRP142     -0.2442
     42  CE2       -3.9160  123.7420   18.6390 C.ar  142  TRP142      0.0810
     43  CE3       -5.5330  122.5790   17.2830 C.ar  142  TRP142      0.0012
     44  CZ2       -4.8330  124.7470   18.9610 C.ar  142  TRP142      0.0191
     45  CZ3       -6.4510  123.5840   17.6080 C.ar  142  TRP142      0.0001
     46  CH2       -6.0940  124.6470   18.4340 C.ar  142  TRP142      0.0015
     47  N          0.6770  117.2840   14.4150 N.3   144  TYR144     -0.1241
     48  CA         2.0710  117.3320   14.8310 C.3   144  TYR144      0.1605
     49  C          2.7070  115.9390   14.8010 C.2   144  TYR144      0.2264
     50  O          2.7940  115.2760   15.8210 O.2   144  TYR144     -0.2867
     51  CB         2.1560  117.8920   16.2620 C.3   144  TYR144      0.0534
     52  CG         1.8670  119.3810   16.4500 C.ar  144  TYR144     -0.0201
     53  CD1        1.7940  120.2650   15.3770 C.ar  144  TYR144     -0.0009
     54  CD2        1.7170  119.9090   17.7300 C.ar  144  TYR144     -0.0009
     55  CE1        1.5570  121.6180   15.5680 C.ar  144  TYR144      0.0417
     56  CE2        1.4860  121.2700   17.9350 C.ar  144  TYR144      0.0417
     57  CZ         1.4090  122.1150   16.8430 C.ar  144  TYR144      0.1957
     58  OH         1.1850  123.4530   17.0150 O.3   144  TYR144     -0.2866
     59  N         -3.7430  123.3280   12.1980 N.3   175  LYS175     -0.1245
     60  CA        -2.5870  124.0650   12.6730 C.3   175  LYS175      0.1561
     61  C         -1.3890  123.1290   12.4910 C.2   175  LYS175      0.2260
     62  O         -1.4340  121.9850   12.9010 O.2   175  LYS175     -0.2867
     63  CB        -2.8280  124.4640   14.1210 C.3   175  LYS175      0.0271
     64  CG        -1.7000  125.2480   14.7840 C.3   175  LYS175      0.0035
     65  CD        -1.9750  125.4310   16.2690 C.3   175  LYS175      0.0206
     66  CE        -0.8170  126.1530   16.9430 C.3   175  LYS175      0.1093
     67  NZ        -0.9100  126.1680   18.4190 N.3   175  LYS175     -0.1314
     68  N          1.6650  127.3170   13.1810 N.3   200  SER200     -0.1202
     69  CA         2.0240  127.3250   14.5770 C.3   200  SER200      0.2020
     70  C          3.2170  128.2730   14.8040 C.2   200  SER200      0.2619
     71  O          4.2610  128.1670   14.1360 O.2   200  SER200     -0.2717
     72  CB         2.3780  125.9040   14.9950 C.3   200  SER200      0.2103
     73  OG         2.5730  125.8530   16.3920 O.3   200  SER200     -0.2182
     74  N          3.0710  129.1980   15.7480 N.am  201  GLY201     -0.1942
     75  CA         4.0720  130.2440   15.9500 C.3   201  GLY201      0.2014
     76  C          5.4580  129.7520   16.3750 C.2   201  GLY201      0.2639
     77  O          6.4810  130.2920   15.9430 O.2   201  GLY201     -0.2714
     78  N          5.4950  128.7260   17.2220 N.am  202  GLY202     -0.1954
     79  CA         6.7540  128.1530   17.6850 C.3   202  GLY202      0.1869
     80  C          7.4060  128.9090   18.8330 C.2   202  GLY202      0.2309
     81  O          6.8200  129.8500   19.3740 O.2   202  GLY202     -0.2863
     82  N         -1.5780  130.7360   14.2820 N.3   227  ALA227     -0.1231
     83  CA        -2.0170  130.4940   15.6430 C.3   227  ALA227      0.1694
     84  C         -0.7690  130.6850   16.4820 C.2   227  ALA227      0.2592
     85  O          0.1100  129.8340   16.4810 O.2   227  ALA227     -0.2718
     86  CB        -2.5680  129.0920   15.7920 C.3   227  ALA227      0.0304
     87  N         -0.6940  131.8180   17.1790 N.am  228  VAL228     -0.1966
     88  CA         0.5110  132.2560   17.8270 C.3   228  VAL228      0.1727
     89  C          0.2980  132.4050   19.3470 C.2   228  VAL228      0.2617
     90  O         -0.7090  132.9450   19.8120 O.2   228  VAL228     -0.2715
     91  CB         1.0090  133.5720   17.2120 C.3   228  VAL228      0.0290
     92  CG1       -0.0190  134.6950   17.3540 C.3   228  VAL228      0.0023
     93  CG2        2.3270  133.9870   17.8530 C.3   228  VAL228      0.0023
     94  N          1.2720  131.9380   20.1100 N.am  229  GLY229     -0.1940
     95  CA         1.2320  132.0310   21.5540 C.3   229  GLY229      0.2014
     96  C          2.4360  132.8150   22.0200 C.2   229  GLY229      0.2639
     97  O          2.3730  134.0180   22.2340 O.2   229  GLY229     -0.2714
     98  N          3.5540  132.1160   22.1270 N.am  230  ARG230     -0.1963
     99  CA         4.7480  132.6340   22.8020 C.3   230  ARG230      0.1729
    100  C          5.3040  133.8810   22.1420 C.2   230  ARG230      0.2616
    101  O          5.7080  134.8040   22.8150 O.2   230  ARG230     -0.2715
    102  CB         5.8200  131.5400   22.8680 C.3   230  ARG230      0.0348
    103  CG         5.4950  130.4480   23.8860 C.3   230  ARG230      0.0492
    104  CD         6.3280  129.1890   23.7520 C.3   230  ARG230      0.2205
    105  NE         5.9260  128.4080   22.5810 N.pl3 230  ARG230     -0.0865
    106  CZ         6.5730  127.3490   22.1040 C.cat 230  ARG230      0.5346
    107  NH1        7.6730  126.8920   22.6820 N.pl3 230  ARG230      0.1354
    108  NH2        6.1150  126.7340   21.0240 N.pl3 230  ARG230      0.1354
    109  N          5.2920  133.9170   20.8190 N.am  231  ASN231     -0.1972
    110  CA         5.8390  135.0480   20.0870 C.3   231  ASN231      0.1688
    111  C          5.0460  136.3440   20.2700 C.2   231  ASN231      0.2292
    112  O          5.5030  137.4110   19.8730 O.2   231  ASN231     -0.2864
    113  CB         6.0060  134.7030   18.5930 C.3   231  ASN231      0.1181
    114  CG         7.3630  134.1050   18.3000 C.2   231  ASN231      0.2629
    115  OD1        8.3650  134.7880   18.4200 O.2   231  ASN231     -0.2716
    116  ND2        7.4050  132.8270   17.9530 N.am  231  ASN231     -0.0877
@<TRIPOS>BOND
     1    59    60    1
     2    61    60    1
     3    61    62    2
     4    60    63    1
     5    68    69    1
     6    63    64    1
     7    71    70    2
     8    82    83    1
     9    47    48    1
    10    69    70    1
    11    69    72    1
    12    64    65    1
    13    49    48    1
    14    49    50    2
    15    70    74   am
    16    48    51    1
    17    35    34    1
    18    35    36    2
    19    72    73    1
    20    33    34    1
    21    53    55   ar
    22    53    52   ar
    23    34    37    1
    24    55    57   ar
    25    83    86    1
    26    83    84    1
    27    74    75    1
    28    77    76    2
    29    75    76    1
    30    51    52    1
    31    65    66    1
    32    76    78   am
    33    52    54   ar
    34    85    84    2
    35    84    87   am
    36    57    58    1
    37    57    56   ar
    38    66    67    1
    39    37    38    1
    40    87    88    1
    41    91    92    1
    42    91    88    1
    43    91    93    1
    44    78    79    1
    45    43    45   ar
    46    43    40   ar
    47    45    46   ar
    48    38    40   ar
    49    38    39   ar
    50    79    80    1
    51    54    56   ar
    52    40    42   ar
    53    88    89    1
    54   116   114   am
    55   114   115    2
    56   114   113    1
    57    46    44   ar
    58    39    41   ar
    59   113   110    1
    60    42    44   ar
    61    42    41   ar
    62    80    81    2
    63    89    90    2
    64    89    94   am
    65   112   111    2
    66   110   111    1
    67   110   109    1
    68    94    95    1
    69     5     2    1
    70   109   100   am
    71     1     2    1
    72   108   106    1
    73     2     3    1
    74    95    96    1
    75    96    98   am
    76    96    97    2
    77   106   105    2
    78   106   107    1
    79    98    99    1
    80   100    99    1
    81   100   101    2
    82   105   104    1
    83    99   102    1
    84   102   103    1
    85     3     4    2
    86    13    11   ar
    87    23    22   ar
    88    23    21   ar
    89    12    11   ar
    90    22    20   ar
    91   104   103    1
    92    11    10    1
    93    21    19   ar
    94    20    19   ar
    95    31    30   ar
    96    30    32   ar
    97    30    29    1
    98    10     7    1
    99    29    28    1
   100     6     7    1
   101    19    18    1
   102     7     8    1
   103    28    25    1
   104     8    14   am
   105     8     9    2
   106    14    15    1
   107    18    15    1
   108    15    16    1
   109    25    26    1
   110    25    24    1
   111    27    26    2
   112    16    17    2
