@<TRIPOS>MOLECULE
tmp/1ok7B00.pdb
 199 190 0 0 0
SMALL
GASTEIGER

@<TRIPOS>ATOM
      1  N          0.6930   19.2920   24.0370 N.3   152  ARG152     -0.1245
      2  CA         2.0430   19.7400   24.3140 C.3   152  ARG152      0.1563
      3  C          2.6970   19.6050   22.9410 C.2   152  ARG152      0.2260
      4  O          3.4210   18.6400   22.6870 O.2   152  ARG152     -0.2867
      5  CB         2.7310   18.8130   25.3250 C.3   152  ARG152      0.0307
      6  CG         2.1350   18.8550   26.7310 C.3   152  ARG152      0.0489
      7  CD         0.9630   17.8990   26.8700 C.3   152  ARG152      0.2205
      8  NE         1.4190   16.5190   27.0280 N.pl3 152  ARG152     -0.0865
      9  CZ         0.6240   15.4570   26.9630 C.cat 152  ARG152      0.5346
     10  NH1       -0.6770   15.6150   26.7360 N.pl3 152  ARG152      0.1354
     11  NH2        1.1240   14.2390   27.1350 N.pl3 152  ARG152      0.1354
     12  N          5.8700   17.8130   22.1050 N.3   155  LEU155     -0.1245
     13  CA         6.0120   16.3570   22.0920 C.3   155  LEU155      0.1561
     14  C          5.7950   15.7710   20.6930 C.2   155  LEU155      0.2260
     15  O          6.1500   14.6090   20.4430 O.2   155  LEU155     -0.2867
     16  CB         5.0290   15.7020   23.0710 C.3   155  LEU155      0.0270
     17  CG         5.2400   16.0580   24.5430 C.3   155  LEU155      0.0019
     18  CD1        4.2390   15.2680   25.3800 C.3   155  LEU155      0.0001
     19  CD2        6.6660   15.7450   24.9740 C.3   155  LEU155      0.0001
     20  N          9.1120   11.2350   22.9050 N.3   172  THR172     -0.1218
     21  CA         8.2180   10.7180   23.9190 C.3   172  THR172      0.1862
     22  C          6.8150   11.2650   23.7140 C.2   172  THR172      0.2287
     23  O          6.6150   12.3540   23.1620 O.2   172  THR172     -0.2866
     24  CB         8.7660   11.0140   25.3450 C.3   172  THR172      0.1770
     25  OG1        7.9190   10.3940   26.3230 O.3   172  THR172     -0.2211
     26  CG2        8.8420   12.5280   25.6100 C.3   172  THR172      0.0375
     27  N          4.5590   10.7560   26.4020 N.3   174  GLY174     -0.1210
     28  CA         3.9990   10.7230   27.7460 C.3   174  GLY174      0.1956
     29  C          3.7650    9.3180   28.2800 C.2   174  GLY174      0.2612
     30  O          3.6670    9.1230   29.5000 O.2   174  GLY174     -0.2717
     31  N          3.6570    8.3330   27.3870 N.am  175  HIS175     -0.1961
     32  CA         3.4410    6.9400   27.7990 C.3   175  HIS175      0.1787
     33  C          4.7110    6.1230   27.6460 C.2   175  HIS175      0.2620
     34  O          4.9910    5.2030   28.4150 O.2   175  HIS175     -0.2715
     35  CB         2.3210    6.3060   26.9690 C.3   175  HIS175      0.0785
     36  CG         0.9990    6.9940   27.1100 C.ar  175  HIS175      0.0821
     37  ND1        0.4050    7.2170   28.3330 N.ar  175  HIS175     -0.2267
     38  CD2        0.1390    7.4760   26.1820 C.ar  175  HIS175      0.1154
     39  CE1       -0.7650    7.8030   28.1530 C.ar  175  HIS175      0.1986
     40  NE2       -0.9510    7.9720   26.8580 N.ar  175  HIS175     -0.2212
     41  N          5.4850    6.4440   26.6220 N.am  176  ARG176     -0.1963
     42  CA         6.7280    5.7550   26.4190 C.3   176  ARG176      0.1729
     43  C          7.6970    6.7950   25.9050 C.2   176  ARG176      0.2616
     44  O          7.2740    7.8480   25.3850 O.2   176  ARG176     -0.2715
     45  CB         6.6010    4.6170   25.3940 C.3   176  ARG176      0.0348
     46  CG         6.3390    5.0570   23.9440 C.3   176  ARG176      0.0492
     47  CD         4.8720    4.9010   23.6600 C.3   176  ARG176      0.2205
     48  NE         4.4310    5.3110   22.3150 N.pl3 176  ARG176     -0.0865
     49  CZ         4.5520    4.5810   21.2080 C.cat 176  ARG176      0.5346
     50  NH1        5.1480    3.3910   21.2300 N.pl3 176  ARG176      0.1354
     51  NH2        3.9420    4.9780   20.1070 N.pl3 176  ARG176      0.1354
     52  N          8.9720    6.4960   26.0800 N.am  177  LEU177     -0.1977
     53  CA        10.0550    7.3620   25.6380 C.3   177  LEU177      0.1596
     54  C         11.1190    6.5200   24.9710 C.2   177  LEU177      0.2287
     55  O         11.2990    5.3380   25.2940 O.2   177  LEU177     -0.2864
     56  CB        10.6640    8.1020   26.8340 C.3   177  LEU177      0.0297
     57  CG        11.9320    8.9470   26.6210 C.3   177  LEU177      0.0022
     58  CD1       11.8560   10.1450   27.5670 C.3   177  LEU177      0.0001
     59  CD2       13.1970    8.1360   26.8490 C.3   177  LEU177      0.0001
     60  N         11.2930   17.2660   27.8980 N.3   242  PRO242     -0.2102
     61  CA        11.6970   16.3880   29.0030 C.3   242  PRO242      0.1504
     62  C         13.1580   15.9220   28.9830 C.2   242  PRO242      0.2575
     63  O         13.7490   15.7060   27.9190 O.2   242  PRO242     -0.2718
     64  CB        10.7210   15.2180   28.8830 C.3   242  PRO242      0.0282
     65  CG         9.4800   15.8690   28.3650 C.3   242  PRO242      0.0208
     66  CD        10.0120   16.8270   27.3130 C.3   242  PRO242      0.0893
     67  N         13.7220   15.7540   30.1760 N.am  243  ASP243     -0.1974
     68  CA        15.1000   15.3100   30.3480 C.3   243  ASP243      0.1708
     69  C         15.1340   13.7870   30.4880 C.2   243  ASP243      0.2293
     70  O         14.8870   13.2540   31.5650 O.2   243  ASP243     -0.2864
     71  CB        15.6860   15.9490   31.6080 C.3   243  ASP243      0.1436
     72  CG        17.1170   15.5190   31.8760 C.2   243  ASP243      0.3671
     73  OD1       17.5980   14.5620   31.2350 O.co2 243  ASP243     -0.2456
     74  OD2       17.7650   16.1380   32.7490 O.co2 243  ASP243     -0.2456
     75  N         16.1730   11.8460   33.5680 N.3   246  ARG246     -0.1231
     76  CA        15.2760   11.8150   34.7150 C.3   246  ARG246      0.1694
     77  C         14.0850   10.8710   34.5620 C.2   246  ARG246      0.2591
     78  O         13.4760   10.4630   35.5510 O.2   246  ARG246     -0.2718
     79  CB        14.7570   13.2270   34.9710 C.3   246  ARG246      0.0321
     80  CG        15.8550   14.2670   35.1500 C.3   246  ARG246      0.0489
     81  CD        16.3650   14.2930   36.5840 C.3   246  ARG246      0.2205
     82  NE        15.2590   14.2900   37.5380 N.pl3 246  ARG246     -0.0865
     83  CZ        14.2120   15.1120   37.4850 C.cat 246  ARG246      0.5346
     84  NH1       14.1130   16.0170   36.5190 N.pl3 246  ARG246      0.1354
     85  NH2       13.2550   15.0250   38.4000 N.pl3 246  ARG246      0.1354
     86  N         13.7500   10.5500   33.3160 N.am  247  VAL247     -0.1980
     87  CA        12.6260    9.6760   32.9890 C.3   247  VAL247      0.1595
     88  C         13.0260    8.2150   33.1250 C.2   247  VAL247      0.2287
     89  O         12.1790    7.3400   33.3180 O.2   247  VAL247     -0.2864
     90  CB        12.1570    9.9390   31.5440 C.3   247  VAL247      0.0276
     91  CG1       11.0550    8.9610   31.1490 C.3   247  VAL247      0.0022
     92  CG2       11.6840   11.3790   31.4170 C.3   247  VAL247      0.0022
     93  N         -7.4610   -6.9660   24.2650 N.3   275  ASN275     -0.1240
     94  CA        -8.5410   -6.0110   24.0290 C.3   275  ASN275      0.1653
     95  C         -8.1730   -5.1710   22.7970 C.2   275  ASN275      0.2266
     96  O         -7.0840   -4.5910   22.7320 O.2   275  ASN275     -0.2867
     97  CB        -8.6960   -5.1270   25.2640 C.3   275  ASN275      0.1155
     98  CG        -9.9010   -4.2150   25.1730 C.2   275  ASN275      0.2627
     99  OD1       -9.9460   -3.3330   24.3220 O.2   275  ASN275     -0.2716
    100  ND2      -10.8890   -4.4340   26.0520 N.am  275  ASN275     -0.0877
    101  N         -7.6950   -1.3560   24.2500 N.3   278  PHE278     -0.1241
    102  CA        -6.6880   -1.1620   25.2990 C.3   278  PHE278      0.1605
    103  C         -5.3970   -1.9690   25.1250 C.2   278  PHE278      0.2264
    104  O         -4.3490   -1.6020   25.6730 O.2   278  PHE278     -0.2867
    105  CB        -7.3120   -1.4290   26.6630 C.3   278  PHE278      0.0534
    106  CG        -8.4230   -0.4580   27.0090 C.ar  278  PHE278     -0.0203
    107  CD1       -8.1420    0.8910   27.2180 C.ar  278  PHE278     -0.0042
    108  CD2       -9.7470   -0.8820   27.0540 C.ar  278  PHE278     -0.0042
    109  CE1       -9.1730    1.8130   27.4660 C.ar  278  PHE278     -0.0003
    110  CE2      -10.7840    0.0310   27.3000 C.ar  278  PHE278     -0.0003
    111  CZ       -10.4920    1.3770   27.5040 C.ar  278  PHE278     -0.0000
    112  N          0.6740   -2.1600   27.4250 N.3   320  ASN320     -0.1240
    113  CA         0.0100   -1.9870   26.1580 C.3   320  ASN320      0.1653
    114  C          0.9240   -2.7520   25.2530 C.2   320  ASN320      0.2266
    115  O          2.0860   -2.3550   25.0770 O.2   320  ASN320     -0.2867
    116  CB        -0.0870   -0.5060   25.7950 C.3   320  ASN320      0.1155
    117  CG        -0.5670   -0.2580   24.4030 C.2   320  ASN320      0.2627
    118  OD1       -0.2470   -0.9980   23.4770 O.2   320  ASN320     -0.2716
    119  ND2       -1.3580    0.7980   24.2410 N.am  320  ASN320     -0.0877
    120  N          2.9360   -0.8580   22.4780 N.3   323  TYR323     -0.1241
    121  CA         4.1080   -0.0900   22.9100 C.3   323  TYR323      0.1605
    122  C          5.3220   -1.0160   23.0420 C.2   323  TYR323      0.2264
    123  O          6.4580   -0.6380   22.7340 O.2   323  TYR323     -0.2867
    124  CB         3.8690    0.5850   24.2640 C.3   323  TYR323      0.0534
    125  CG         2.8120    1.6700   24.2970 C.ar  323  TYR323     -0.0201
    126  CD1        2.3990    2.3160   23.1300 C.ar  323  TYR323     -0.0009
    127  CD2        2.2800    2.1010   25.5110 C.ar  323  TYR323     -0.0009
    128  CE1        1.4710    3.3750   23.1730 C.ar  323  TYR323      0.0417
    129  CE2        1.3590    3.1670   25.5670 C.ar  323  TYR323      0.0417
    130  CZ         0.9670    3.7930   24.3980 C.ar  323  TYR323      0.1957
    131  OH         0.1180    4.8820   24.4520 O.3   323  TYR323     -0.2866
    132  N          5.1370   -3.5970   39.6890 N.3   343  SER343     -0.1202
    133  CA         3.9460   -3.5140   38.8580 C.3   343  SER343      0.2020
    134  C          3.4370   -2.1250   38.5170 C.2   343  SER343      0.2618
    135  O          2.6890   -1.9570   37.5560 O.2   343  SER343     -0.2717
    136  CB         2.8110   -4.2810   39.5220 C.3   343  SER343      0.2103
    137  OG         3.2800   -5.5250   39.9980 O.3   343  SER343     -0.2182
    138  N          3.8220   -1.1230   39.2960 N.am  344  VAL344     -0.1979
    139  CA         3.3230    0.2150   39.0380 C.3   344  VAL344      0.1595
    140  C          4.4000    1.1550   38.5160 C.2   344  VAL344      0.2287
    141  O          4.1860    2.3590   38.4010 O.2   344  VAL344     -0.2864
    142  CB         2.6910    0.8120   40.3250 C.3   344  VAL344      0.0276
    143  CG1        1.4720   -0.0070   40.7310 C.3   344  VAL344      0.0022
    144  CG2        3.7070    0.8130   41.4580 C.3   344  VAL344      0.0022
    145  N          7.6140    2.1430   35.6170 N.3   346  SER346     -0.1217
    146  CA         8.0500    1.9970   34.2370 C.3   346  SER346      0.1889
    147  C          9.1020    0.9140   34.1050 C.2   346  SER346      0.2288
    148  O          9.7500    0.5270   35.0770 O.2   346  SER346     -0.2866
    149  CB         8.6360    3.3190   33.7200 C.3   346  SER346      0.2089
    150  OG         9.7740    3.7020   34.4720 O.3   346  SER346     -0.2183
    151  N         11.7350    3.5520   27.5450 N.3   360  VAL360     -0.1245
    152  CA        11.0260    3.5120   28.8110 C.3   360  VAL360      0.1561
    153  C          9.5590    3.3970   28.5010 C.2   360  VAL360      0.2260
    154  O          9.0060    4.2060   27.7570 O.2   360  VAL360     -0.2867
    155  CB        11.2810    4.7950   29.6440 C.3   360  VAL360      0.0252
    156  CG1       10.4740    4.7310   30.9430 C.3   360  VAL360      0.0019
    157  CG2       12.7620    4.9260   29.9350 C.3   360  VAL360      0.0019
    158  N          5.7250    2.8800   30.3090 N.3   362  MET362     -0.1231
    159  CA         4.9510    2.8850   31.5300 C.3   362  MET362      0.1687
    160  C          3.9420    1.7370   31.4680 C.2   362  MET362      0.2434
    161  O          3.3820    1.4370   30.4110 O.2   362  MET362     -0.2733
    162  CB         4.2150    4.2170   31.6770 C.3   362  MET362      0.0400
    163  CG         3.9210    4.6120   33.1180 C.3   362  MET362      0.0596
    164  SD         5.4100    4.8040   34.1530 S.3   362  MET362     -0.1393
    165  CE         4.6140    4.7940   35.7460 C.3   362  MET362      0.0692
    166  N          3.7010    1.0720   32.5990 N.am  363  PRO363     -0.2718
    167  CA         2.7340   -0.0340   32.5800 C.3   363  PRO363      0.1535
    168  C          1.2740    0.3960   32.6740 C.2   363  PRO363      0.2598
    169  O          0.9630    1.5760   32.8050 O.2   363  PRO363     -0.2715
    170  CB         3.1710   -0.8890   33.7700 C.3   363  PRO363      0.0310
    171  CG         3.6980    0.1380   34.7360 C.3   363  PRO363      0.0237
    172  CD         4.5300    1.0190   33.8130 C.3   363  PRO363      0.0939
    173  N          0.3660   -0.5650   32.5560 N.am  364  MET364     -0.1964
    174  CA        -1.0420   -0.2530   32.6740 C.3   364  MET364      0.1736
    175  C         -1.6360   -1.1850   33.7100 C.2   364  MET364      0.2616
    176  O         -1.0560   -2.2250   34.0160 O.2   364  MET364     -0.2715
    177  CB        -1.7610   -0.3710   31.3220 C.3   364  MET364      0.0427
    178  CG        -1.6460   -1.6810   30.5790 C.3   364  MET364      0.0599
    179  SD        -2.3850   -1.5220   28.8930 S.3   364  MET364     -0.1393
    180  CE        -4.1570   -1.4380   29.3080 C.3   364  MET364      0.0692
    181  N         -2.7650   -0.7890   34.2840 N.am  365  ARG365     -0.1963
    182  CA        -3.4120   -1.6080   35.3010 C.3   365  ARG365      0.1729
    183  C         -4.4600   -2.5150   34.6830 C.2   365  ARG365      0.2616
    184  O         -5.4400   -2.0500   34.1010 O.2   365  ARG365     -0.2715
    185  CB        -4.0790   -0.7190   36.3630 C.3   365  ARG365      0.0348
    186  CG        -4.8300   -1.4700   37.4750 C.3   365  ARG365      0.0492
    187  CD        -3.8890   -2.2750   38.3840 C.3   365  ARG365      0.2205
    188  NE        -4.5910   -2.9380   39.4860 N.pl3 365  ARG365     -0.0865
    189  CZ        -3.9950   -3.7050   40.3940 C.cat 365  ARG365      0.5346
    190  NH1       -2.6890   -3.9080   40.3300 N.pl3 365  ARG365      0.1354
    191  NH2       -4.6980   -4.2640   41.3730 N.pl3 365  ARG365      0.1354
    192  N         -4.2330   -3.8160   34.7820 N.am  366  LEU366     -0.1977
    193  CA        -5.1950   -4.7840   34.2790 C.3   366  LEU366      0.1596
    194  C         -5.9960   -5.2370   35.5000 C.2   366  LEU366      0.2287
    195  O         -5.6480   -6.2760   36.1030 O.2   366  LEU366     -0.2864
    196  CB        -4.4860   -5.9720   33.6050 C.3   366  LEU366      0.0297
    197  CG        -3.8290   -5.6890   32.2450 C.3   366  LEU366      0.0022
    198  CD1       -4.8440   -5.0210   31.3230 C.3   366  LEU366      0.0001
    199  CD2       -2.6290   -4.7870   32.4280 C.3   366  LEU366      0.0001
@<TRIPOS>BOND
     1    51    49    1
     2    15    14    2
     3    14    13    1
     4    49    50    1
     5    49    48    2
     6    13    12    1
     7    13    16    1
     8    48    47    1
     9   120   121    1
    10     4     3    2
    11    96    95    2
    12   123   122    2
    13    95    94    1
    14    20    21    1
    15   121   122    1
    16   121   124    1
    17     3     2    1
    18    16    17    1
    19   126   128   ar
    20   126   125   ar
    21    23    22    2
    22   128   130   ar
    23   118   117    2
    24    47    46    1
    25    22    21    1
    26    21    24    1
    27    46    45    1
    28    94    93    1
    29    94    97    1
    30     1     2    1
    31   119   117   am
    32   101   102    1
    33   124   125    1
    34   125   127   ar
    35     2     5    1
    36    99    98    2
    37   130   131    1
    38   130   129   ar
    39   117   116    1
    40    17    19    1
    41    17    18    1
    42    54    55    2
    43    54    53    1
    44   115   114    2
    45   103   102    1
    46   103   104    2
    47    98    97    1
    48    98   100   am
    49   114   113    1
    50   102   105    1
    51     5     6    1
    52    24    26    1
    53    24    25    1
    54    44    43    2
    55    45    42    1
    56   127   129   ar
    57    53    52    1
    58    53    56    1
    59   116   113    1
    60    43    52   am
    61    43    42    1
    62   113   112    1
    63    38    40   ar
    64    38    36   ar
    65    27    28    1
    66    42    41    1
    67    57    56    1
    68    57    59    1
    69    57    58    1
    70    41    33   am
    71   105   106    1
    72     6     7    1
    73    10     9    1
    74    40    39   ar
    75     7     8    1
    76     9     8    2
    77     9    11    1
    78    35    36    1
    79    35    32    1
    80   106   108   ar
    81   106   107   ar
    82   108   110   ar
    83    36    37   ar
    84   107   109   ar
    85   110   111   ar
    86    66    60    1
    87    66    65    1
    88    31    32    1
    89    31    29   am
    90   109   111   ar
    91   151   152    1
    92    33    32    1
    93    33    34    2
    94    28    29    1
    95   154   153    2
    96    60    61    1
    97    63    62    2
    98    39    37   ar
    99    29    30    2
   100    65    64    1
   101   153   152    1
   102   152   155    1
   103    64    61    1
   104   179   180    1
   105   179   178    1
   106    62    61    1
   107    62    67   am
   108   155   157    1
   109   155   156    1
   110    67    68    1
   111   158   159    1
   112    68    69    1
   113    68    71    1
   114   161   160    2
   115    69    70    2
   116   178   177    1
   117    91    90    1
   118    73    72   ar
   119   177   174    1
   120   198   197    1
   121    92    90    1
   122   160   159    1
   123   160   166   am
   124   159   162    1
   125    90    87    1
   126    71    72    1
   127   162   163    1
   128    72    74   ar
   129   197   199    1
   130   197   196    1
   131   173   174    1
   132   173   168   am
   133   167   166    1
   134   167   168    1
   135   167   170    1
   136   166   172    1
   137   174   175    1
   138   168   169    2
   139    87    88    1
   140    87    86    1
   141   163   164    1
   142    88    89    2
   143    86    77   am
   144    75    76    1
   145   196   193    1
   146   175   176    2
   147   175   181   am
   148   149   146    1
   149   149   150    1
   150   170   171    1
   151   172   171    1
   152   184   183    2
   153   147   146    1
   154   147   148    2
   155   164   165    1
   156   146   145    1
   157   193   192    1
   158   193   194    1
   159   181   182    1
   160    77    76    1
   161    77    78    2
   162   183   192   am
   163   183   182    1
   164    76    79    1
   165    79    80    1
   166    80    81    1
   167   182   185    1
   168   194   195    2
   169   185   186    1
   170    84    83    1
   171    81    82    1
   172   186   187    1
   173    83    82    2
   174    83    85    1
   175   135   134    2
   176   187   188    1
   177   141   140    2
   178   140   139    1
   179   134   133    1
   180   134   138   am
   181   133   136    1
   182   133   132    1
   183   139   138    1
   184   139   142    1
   185   188   189    2
   186   136   137    1
   187   142   143    1
   188   142   144    1
   189   190   189    1
   190   189   191    1
