@<TRIPOS>MOLECULE
tmp/1okcA03.pdb
 134 128 0 0 0
SMALL
GASTEIGER

@<TRIPOS>ATOM
      1  N         21.8680   34.3100   37.0460 N.3    93  TYR93      -0.1241
      2  CA        20.6090   34.5150   36.3480 C.3    93  TYR93       0.1605
      3  C         19.4500   34.1180   37.2500 C.2    93  TYR93       0.2264
      4  O         18.4130   34.7830   37.2650 O.2    93  TYR93      -0.2867
      5  CB        20.5600   33.7120   35.0400 C.3    93  TYR93       0.0534
      6  CG        21.3890   34.3070   33.9160 C.ar   93  TYR93      -0.0201
      7  CD1       21.3610   35.6780   33.6500 C.ar   93  TYR93      -0.0009
      8  CD2       22.1830   33.4960   33.1000 C.ar   93  TYR93      -0.0009
      9  CE1       22.1060   36.2310   32.5960 C.ar   93  TYR93       0.0417
     10  CE2       22.9280   34.0310   32.0460 C.ar   93  TYR93       0.0417
     11  CZ        22.8850   35.4000   31.7990 C.ar   93  TYR93       0.1957
     12  OH        23.6190   35.9320   30.7570 O.3    93  TYR93      -0.2866
     13  N         16.5350   36.6820   38.0810 N.3    97  PHE97      -0.1241
     14  CA        15.1330   36.4500   37.7140 C.3    97  PHE97       0.1605
     15  C         14.2470   35.8430   38.8000 C.2    97  PHE97       0.2264
     16  O         13.0200   35.8460   38.6700 O.2    97  PHE97      -0.2867
     17  CB        15.0530   35.5630   36.4680 C.3    97  PHE97       0.0534
     18  CG        15.6440   36.1860   35.2400 C.ar   97  PHE97      -0.0203
     19  CD1       14.9990   37.2460   34.6040 C.ar   97  PHE97      -0.0042
     20  CD2       16.8500   35.7140   34.7200 C.ar   97  PHE97      -0.0042
     21  CE1       15.5440   37.8300   33.4630 C.ar   97  PHE97      -0.0003
     22  CE2       17.4080   36.2850   33.5840 C.ar   97  PHE97      -0.0003
     23  CZ        16.7520   37.3530   32.9480 C.ar   97  PHE97      -0.0000
     24  N         12.8940   32.3890   32.1740 N.3   116  ALA116     -0.1245
     25  CA        13.8380   33.4390   31.7840 C.3   116  ALA116      0.1562
     26  C         15.2500   33.0590   32.2140 C.2   116  ALA116      0.2260
     27  O         16.2150   33.2890   31.4850 O.2   116  ALA116     -0.2867
     28  CB        13.4320   34.7820   32.4290 C.3   116  ALA116      0.0290
     29  N         16.3640   30.1840   29.9960 N.3   119  GLY119     -0.1210
     30  CA        16.5850   30.7450   28.6750 C.3   119  GLY119      0.1956
     31  C         17.8310   31.6130   28.5970 C.2   119  GLY119      0.2611
     32  O         18.5670   31.5570   27.6110 O.2   119  GLY119     -0.2717
     33  N         18.0720   32.4100   29.6370 N.am  120  ALA120     -0.1979
     34  CA        19.2410   33.2800   29.6730 C.3   120  ALA120      0.1597
     35  C         20.5310   32.4660   29.7800 C.2   120  ALA120      0.2287
     36  O         21.5160   32.7670   29.1010 O.2   120  ALA120     -0.2864
     37  CB        19.1380   34.2560   30.8440 C.3   120  ALA120      0.0319
     38  N         21.0310   30.5720   26.2700 N.3   123  ALA123     -0.1231
     39  CA        21.4820   31.4510   25.1900 C.3   123  ALA123      0.1694
     40  C         22.9210   31.8960   25.4270 C.2   123  ALA123      0.2592
     41  O         23.7060   31.9990   24.4830 O.2   123  ALA123     -0.2718
     42  CB        20.5690   32.6740   25.0870 C.3   123  ALA123      0.0304
     43  N         23.2620   32.1590   26.6880 N.am  124  THR124     -0.1953
     44  CA        24.6140   32.5880   27.0400 C.3   124  THR124      0.1897
     45  C         25.6220   31.4910   26.7030 C.2   124  THR124      0.2313
     46  O         26.6510   31.7560   26.0650 O.2   124  THR124     -0.2863
     47  CB        24.7060   32.9510   28.5390 C.3   124  THR124      0.1794
     48  OG1       23.8430   34.0620   28.8060 O.3   124  THR124     -0.2208
     49  CG2       26.1230   33.3290   28.9220 C.3   124  THR124      0.0378
     50  N         26.1240   31.0610   23.0430 N.3   127  CYS127     -0.1235
     51  CA        26.9080   32.1120   22.3970 C.3   127  CYS127      0.1677
     52  C         28.3170   31.5800   22.1660 C.2   127  CYS127      0.2270
     53  O         29.0180   32.0310   21.2650 O.2   127  CYS127     -0.2867
     54  CB        26.9830   33.3710   23.2690 C.3   127  CYS127      0.0956
     55  SG        25.5690   34.4890   23.1150 S.3   127  CYS127     -0.0801
     56  N         28.2460   34.1190   10.9970 N.3   169  ARG169     -0.1245
     57  CA        26.8190   33.8650   10.8430 C.3   169  ARG169      0.1563
     58  C         26.5330   32.4310   10.3970 C.2   169  ARG169      0.2260
     59  O         25.5180   31.8420   10.7770 O.2   169  ARG169     -0.2867
     60  CB        26.2180   34.8510    9.8360 C.3   169  ARG169      0.0307
     61  CG        25.6530   36.0330   10.6050 C.3   169  ARG169      0.0489
     62  CD        24.2730   35.6900   11.1870 C.3   169  ARG169      0.2205
     63  NE        23.2910   35.4960   10.1110 N.pl3 169  ARG169     -0.0865
     64  CZ        22.7750   34.3060    9.7820 C.cat 169  ARG169      0.5346
     65  NH1       23.1640   33.2060   10.4230 N.pl3 169  ARG169      0.1354
     66  NH2       21.8780   34.2190    8.7950 N.pl3 169  ARG169      0.1354
     67  N         26.4130   30.0080   13.3230 N.3   172  TYR172     -0.1227
     68  CA        25.3390   30.2420   14.2890 C.3   172  TYR172      0.1736
     69  C         23.9300   30.1780   13.7040 C.2   172  TYR172      0.2595
     70  O         22.9750   30.5870   14.3600 O.2   172  TYR172     -0.2718
     71  CB        25.5110   31.6010   14.9790 C.3   172  TYR172      0.0548
     72  CG        26.6420   31.6500   15.9720 C.ar  172  TYR172     -0.0200
     73  CD1       27.9550   31.8190   15.5440 C.ar  172  TYR172     -0.0009
     74  CD2       26.4060   31.4840   17.3470 C.ar  172  TYR172     -0.0009
     75  CE1       29.0100   31.8170   16.4420 C.ar  172  TYR172      0.0417
     76  CE2       27.4650   31.4810   18.2610 C.ar  172  TYR172      0.0417
     77  CZ        28.7680   31.6450   17.7920 C.ar  172  TYR172      0.1957
     78  OH        29.8440   31.6080   18.6520 O.3   172  TYR172     -0.2866
     79  N         23.8060   29.6720   12.4790 N.am  173  GLN173     -0.1965
     80  CA        22.5040   29.5520   11.8180 C.3   173  GLN173      0.1733
     81  C         21.4980   28.7850   12.6800 C.2   173  GLN173      0.2617
     82  O         21.7490   27.6460   13.0680 O.2   173  GLN173     -0.2715
     83  CB        22.6660   28.8250   10.4790 C.3   173  GLN173      0.0408
     84  CG        23.1590   29.6900    9.3410 C.3   173  GLN173      0.0908
     85  CD        22.0160   30.3370    8.5760 C.2   173  GLN173      0.2608
     86  OE1       21.1730   31.0120    9.1560 O.2   173  GLN173     -0.2717
     87  NE2       21.9860   30.1260    7.2650 N.am  173  GLN173     -0.0878
     88  N         20.3630   29.4140   12.9760 N.am  174  GLY174     -0.1940
     89  CA        19.3390   28.7630   13.7740 C.3   174  GLY174      0.2014
     90  C         19.4080   29.0900   15.2540 C.2   174  GLY174      0.2639
     91  O         18.6640   28.5250   16.0570 O.2   174  GLY174     -0.2714
     92  N         20.2960   30.0080   15.6170 N.am  175  PHE175     -0.1959
     93  CA        20.4640   30.4040   17.0110 C.3   175  PHE175      0.1771
     94  C         19.1610   30.8190   17.6920 C.2   175  PHE175      0.2619
     95  O         18.8160   30.3040   18.7590 O.2   175  PHE175     -0.2715
     96  CB        21.4560   31.5670   17.1250 C.3   175  PHE175      0.0574
     97  CG        21.8340   31.9010   18.5440 C.ar  175  PHE175     -0.0200
     98  CD1       22.8950   31.2520   19.1650 C.ar  175  PHE175     -0.0042
     99  CD2       21.1050   32.8380   19.2700 C.ar  175  PHE175     -0.0042
    100  CE1       23.2250   31.5300   20.4900 C.ar  175  PHE175     -0.0003
    101  CE2       21.4250   33.1220   20.5960 C.ar  175  PHE175     -0.0003
    102  CZ        22.4890   32.4640   21.2060 C.ar  175  PHE175     -0.0000
    103  N         18.4410   31.7550   17.0790 N.am  176  ASN176     -0.1972
    104  CA        17.1980   32.2480   17.6650 C.3   176  ASN176      0.1688
    105  C         16.0950   31.2220   17.9000 C.2   176  ASN176      0.2292
    106  O         15.4870   31.2030   18.9700 O.2   176  ASN176     -0.2864
    107  CB        16.6400   33.4070   16.8440 C.3   176  ASN176      0.1181
    108  CG        17.4160   34.6860   17.0570 C.2   176  ASN176      0.2629
    109  OD1       18.5180   34.8510   16.5350 O.2   176  ASN176     -0.2716
    110  ND2       16.8520   35.5970   17.8400 N.am  176  ASN176     -0.0877
    111  N         16.8460   29.0340   20.8710 N.3   179  VAL179     -0.1231
    112  CA        16.5900   29.6490   22.1690 C.3   179  VAL179      0.1692
    113  C         15.0930   29.5880   22.4790 C.2   179  VAL179      0.2591
    114  O         14.6930   29.3570   23.6270 O.2   179  VAL179     -0.2718
    115  CB        17.0750   31.1080   22.1900 C.3   179  VAL179      0.0266
    116  CG1       16.6330   31.8080   23.4890 C.3   179  VAL179      0.0020
    117  CG2       18.5940   31.1320   22.0610 C.3   179  VAL179      0.0020
    118  N         14.2730   29.8040   21.4540 N.am  180  GLN180     -0.1979
    119  CA        12.8220   29.7230   21.6100 C.3   180  GLN180      0.1601
    120  C         12.5360   28.2850   22.0340 C.2   180  GLN180      0.2287
    121  O         11.7160   28.0300   22.9200 O.2   180  GLN180     -0.2864
    122  CB        12.1140   29.9990   20.2770 C.3   180  GLN180      0.0394
    123  CG        12.1550   31.4330   19.7950 C.3   180  GLN180      0.0908
    124  CD        11.5290   31.5960   18.4150 C.2   180  GLN180      0.2608
    125  OE1       10.5800   30.8940   18.0610 O.2   180  GLN180     -0.2717
    126  NE2       12.0510   32.5350   17.6370 N.am  180  GLN180     -0.0878
    127  N         13.1950   27.5680   25.7000 N.3   183  ILE183     -0.1245
    128  CA        12.1320   28.0750   26.5530 C.3   183  ILE183      0.1561
    129  C         10.8670   27.2040   26.5130 C.2   183  ILE183      0.2260
    130  O         10.2600   26.9280   27.5530 O.2   183  ILE183     -0.2867
    131  CB        11.7780   29.5170   26.1530 C.3   183  ILE183      0.0252
    132  CG1       12.9500   30.4430   26.4960 C.3   183  ILE183      0.0019
    133  CG2       10.5060   29.9600   26.8590 C.3   183  ILE183      0.0019
    134  CD1       12.9050   31.7810   25.7800 C.3   183  ILE183      0.0001
@<TRIPOS>BOND
     1    87    85   am
     2    85    86    2
     3    85    84    1
     4    66    64    1
     5    84    83    1
     6    64    63    2
     7    64    65    1
     8    60    61    1
     9    60    57    1
    10    63    62    1
    11    58    59    2
    12    58    57    1
    13    83    80    1
    14    61    62    1
    15    57    56    1
    16    80    79    1
    17    80    81    1
    18    79    69   am
    19    81    88   am
    20    81    82    2
    21    88    89    1
    22    67    68    1
    23    69    68    1
    24    69    70    2
    25    89    90    1
    26    68    71    1
    27    71    72    1
    28    90    92   am
    29    90    91    2
    30    73    72   ar
    31    73    75   ar
    32    92    93    1
    33    72    74   ar
    34    75    77   ar
    35   109   108    2
    36   107   108    1
    37   107   104    1
    38    93    96    1
    39    93    94    1
    40   108   110   am
    41   103   104    1
    42   103    94   am
    43    96    97    1
    44    74    76   ar
    45   126   124   am
    46   104   105    1
    47    94    95    2
    48    77    76   ar
    49    77    78    1
    50   105   106    2
    51   125   124    2
    52   124   123    1
    53    97    98   ar
    54    97    99   ar
    55    98   100   ar
    56    99   101   ar
    57   123   122    1
    58   122   119    1
    59   100   102   ar
    60   101   102   ar
    61   111   112    1
    62    53    52    2
    63   118   119    1
    64   118   113   am
    65   119   120    1
    66   120   121    2
    67   117   115    1
    68    52    51    1
    69   112   115    1
    70   112   113    1
    71   115   116    1
    72    51    50    1
    73    51    54    1
    74   113   114    2
    75    55    54    1
    76    41    40    2
    77    42    39    1
    78    39    40    1
    79    39    38    1
    80    40    43   am
    81   127   128    1
    82   134   132    1
    83    46    45    2
    84   131   132    1
    85   131   128    1
    86   131   133    1
    87   129   128    1
    88   129   130    2
    89    43    44    1
    90    45    44    1
    91    44    47    1
    92    32    31    2
    93    47    48    1
    94    47    49    1
    95    31    30    1
    96    31    33   am
    97    30    29    1
    98    36    35    2
    99    33    34    1
   100    34    35    1
   101    34    37    1
   102    12    11    1
   103    27    26    2
   104    25    24    1
   105    25    26    1
   106    25    28    1
   107    11    10   ar
   108    11     9   ar
   109    10     8   ar
   110     9     7   ar
   111    23    21   ar
   112    23    22   ar
   113     8     6   ar
   114    21    19   ar
   115    22    20   ar
   116     7     6   ar
   117     6     5    1
   118    19    18   ar
   119    20    18   ar
   120     5     2    1
   121    18    17    1
   122     2     1    1
   123     2     3    1
   124    17    14    1
   125     3     4    2
   126    14    13    1
   127    14    15    1
   128    16    15    2
