@<TRIPOS>MOLECULE
tmp/1okcA01.pdb
 132 126 0 0 0
SMALL
GASTEIGER

@<TRIPOS>ATOM
      1  N         30.0670   12.3130   28.3180 N.3    18  ALA18      -0.1245
      2  CA        30.7410   11.8230   27.1210 C.3    18  ALA18       0.1562
      3  C         30.3900   10.3700   26.8200 C.2    18  ALA18       0.2260
      4  O         30.2930    9.9660   25.6590 O.2    18  ALA18      -0.2867
      5  CB        32.2530   11.9720   27.2750 C.3    18  ALA18       0.0290
      6  N         28.0040    9.3810   23.6280 N.3    22  THR22      -0.1203
      7  CA        28.7030    8.5610   22.6490 C.3    22  THR22       0.1994
      8  C         27.9100    7.2660   22.4680 C.2    22  THR22       0.2617
      9  O         27.7850    6.7400   21.3580 O.2    22  THR22      -0.2717
     10  CB        30.1420    8.2250   23.1140 C.3    22  THR22       0.1784
     11  OG1       30.9400    9.4180   23.1100 O.3    22  THR22      -0.2211
     12  CG2       30.7820    7.1860   22.1890 C.3    22  THR22       0.0376
     13  N         27.3620    6.7670   23.5720 N.am   23  ALA23      -0.1979
     14  CA        26.5850    5.5390   23.5480 C.3    23  ALA23       0.1597
     15  C         25.3610    5.6260   22.6320 C.2    23  ALA23       0.2287
     16  O         25.0820    4.6910   21.8860 O.2    23  ALA23      -0.2864
     17  CB        26.1540    5.1700   24.9590 C.3    23  ALA23       0.0319
     18  N         31.7160    2.7090   11.6330 N.3    66  LEU66      -0.1245
     19  CA        32.2280    3.8130   12.4290 C.3    66  LEU66       0.1561
     20  C         31.4660    5.1160   12.1690 C.2    66  LEU66       0.2260
     21  O         31.3570    5.9530   13.0590 O.2    66  LEU66      -0.2867
     22  CB        33.7160    4.0020   12.1280 C.3    66  LEU66       0.0270
     23  CG        34.6560    4.2210   13.3130 C.3    66  LEU66       0.0019
     24  CD1       34.3430    3.2180   14.4160 C.3    66  LEU66       0.0001
     25  CD2       36.1000    4.0790   12.8490 C.3    66  LEU66       0.0001
     26  N         29.0880    7.2370   14.4390 N.3    69  TRP69      -0.1227
     27  CA        29.5430    8.2670   15.3710 C.3    69  TRP69       0.1737
     28  C         30.0440    9.5150   14.6550 C.2    69  TRP69       0.2595
     29  O         30.7730   10.3220   15.2350 O.2    69  TRP69      -0.2718
     30  CB        30.6550    7.7090   16.2730 C.3    69  TRP69       0.0564
     31  CG        30.1460    6.6990   17.2520 C.ar   69  TRP69       0.0003
     32  CD1       29.6990    6.9370   18.5210 C.ar   69  TRP69       0.0946
     33  CD2       29.9240    5.3060   17.0020 C.ar   69  TRP69       0.0152
     34  NE1       29.2030    5.7780   19.0760 N.ar   69  TRP69      -0.2442
     35  CE2       29.3280    4.7620   18.1650 C.ar   69  TRP69       0.0810
     36  CE3       30.1660    4.4640   15.9040 C.ar   69  TRP69       0.0012
     37  CZ2       28.9680    3.4110   18.2630 C.ar   69  TRP69       0.0191
     38  CZ3       29.8090    3.1250   15.9980 C.ar   69  TRP69       0.0001
     39  CH2       29.2130    2.6100   17.1740 C.ar   69  TRP69       0.0015
     40  N         29.6650    9.6780   13.3930 N.am   70  ARG70      -0.1966
     41  CA        30.1040   10.8490   12.6390 C.3    70  ARG70       0.1729
     42  C         29.5870   12.1340   13.3100 C.2    70  ARG70       0.2617
     43  O         28.3890   12.2890   13.5390 O.2    70  ARG70      -0.2715
     44  CB        29.6190   10.7550   11.1880 C.3    70  ARG70       0.0348
     45  CG        30.2240   11.7980   10.2520 C.3    70  ARG70       0.0492
     46  CD        29.9460   11.4550    8.7750 C.3    70  ARG70       0.2205
     47  NE        30.7080   10.2890    8.3160 N.pl3  70  ARG70      -0.0865
     48  CZ        30.7090    9.8250    7.0660 C.cat  70  ARG70       0.5346
     49  NH1       29.9830   10.4160    6.1230 N.pl3  70  ARG70       0.1354
     50  NH2       31.4510    8.7690    6.7530 N.pl3  70  ARG70       0.1354
     51  N         30.5120   13.0320   13.6410 N.am   71  GLY71      -0.1940
     52  CA        30.1650   14.2900   14.2840 C.3    71  GLY71       0.2014
     53  C         30.0520   14.2040   15.7980 C.2    71  GLY71       0.2639
     54  O         29.7090   15.1890   16.4530 O.2    71  GLY71      -0.2714
     55  N         30.3490   13.0350   16.3630 N.am   72  ASN72      -0.1958
     56  CA        30.2370   12.8430   17.8080 C.3    72  ASN72       0.1819
     57  C         31.2960   13.5250   18.6770 C.2    72  ASN72       0.2621
     58  O         31.0920   13.6830   19.8860 O.2    72  ASN72      -0.2715
     59  CB        30.1890   11.3440   18.1480 C.3    72  ASN72       0.1195
     60  CG        30.0520   11.0920   19.6490 C.2    72  ASN72       0.2630
     61  OD1       31.0070   10.6760   20.3160 O.2    72  ASN72      -0.2716
     62  ND2       28.8670   11.3640   20.1890 N.am   72  ASN72      -0.0877
     63  N         32.4170   13.9330   18.0850 N.am   73  LEU73      -0.1963
     64  CA        33.4590   14.6050   18.8660 C.3    73  LEU73       0.1728
     65  C         32.8700   15.8260   19.5680 C.2    73  LEU73       0.2616
     66  O         33.1640   16.0900   20.7340 O.2    73  LEU73      -0.2715
     67  CB        34.6160   15.0640   17.9730 C.3    73  LEU73       0.0311
     68  CG        36.0330   15.0520   18.5740 C.3    73  LEU73       0.0022
     69  CD1       36.9040   16.0720   17.8330 C.3    73  LEU73       0.0001
     70  CD2       36.0030   15.3650   20.0480 C.3    73  LEU73       0.0001
     71  N         32.0410   16.5780   18.8500 N.am   74  ALA74      -0.1977
     72  CA        31.4180   17.7610   19.4240 C.3    74  ALA74       0.1597
     73  C         30.6530   17.3740   20.6820 C.2    74  ALA74       0.2287
     74  O         30.6590   18.1130   21.6680 O.2    74  ALA74      -0.2864
     75  CB        30.4790   18.4150   18.4120 C.3    74  ALA74       0.0319
     76  N         31.2670   14.9720   22.9640 N.3    76  VAL76      -0.1231
     77  CA        32.0930   14.7550   24.1460 C.3    76  VAL76       0.1692
     78  C         32.8030   16.0030   24.6590 C.2    76  VAL76       0.2591
     79  O         33.2000   16.0520   25.8230 O.2    76  VAL76      -0.2718
     80  CB        33.1600   13.6630   23.9070 C.3    76  VAL76       0.0266
     81  CG1       32.5210   12.4500   23.2600 C.3    76  VAL76       0.0020
     82  CG2       34.2900   14.2100   23.0510 C.3    76  VAL76       0.0020
     83  N         32.9500   17.0040   23.7940 N.am   77  ILE77      -0.1980
     84  CA        33.6290   18.2540   24.1360 C.3    77  ILE77       0.1595
     85  C         32.7440   19.3370   24.7620 C.2    77  ILE77       0.2287
     86  O         33.1420   19.9880   25.7310 O.2    77  ILE77      -0.2864
     87  CB        34.2920   18.8720   22.8770 C.3    77  ILE77       0.0276
     88  CG1       35.5330   18.0710   22.4910 C.3    77  ILE77       0.0022
     89  CG2       34.6590   20.3320   23.1230 C.3    77  ILE77       0.0022
     90  CD1       36.0810   18.4680   21.1430 C.3    77  ILE77       0.0001
     91  N         28.1220   17.4120   10.3320 N.3   139  LEU139     -0.1245
     92  CA        28.8970   16.1810   10.1570 C.3   139  LEU139      0.1561
     93  C         27.9590   14.9760   10.1590 C.2   139  LEU139      0.2260
     94  O         28.1430   14.0340    9.3900 O.2   139  LEU139     -0.2867
     95  CB        29.9280   16.0160   11.2750 C.3   139  LEU139      0.0270
     96  CG        31.1990   16.8620   11.1970 C.3   139  LEU139      0.0019
     97  CD1       31.9530   16.7740   12.5210 C.3   139  LEU139      0.0001
     98  CD2       32.0660   16.3720   10.0510 C.3   139  LEU139      0.0001
     99  N         33.5250   13.0290    1.3120 N.3   150  ARG150     -0.1245
    100  CA        33.1010   13.7210    2.5240 C.3   150  ARG150      0.1563
    101  C         32.9120   15.2150    2.2720 C.2   150  ARG150      0.2260
    102  O         33.7370   15.8590    1.6190 O.2   150  ARG150     -0.2867
    103  CB        34.1270   13.5050    3.6460 C.3   150  ARG150      0.0307
    104  CG        34.1510   12.0820    4.2120 C.3   150  ARG150      0.0489
    105  CD        32.8920   11.7970    5.0240 C.3   150  ARG150      0.2205
    106  NE        32.8610   12.5740    6.2620 N.pl3 150  ARG150     -0.0865
    107  CZ        33.5530   12.2610    7.3530 C.cat 150  ARG150      0.5346
    108  NH1       34.3270   11.1800    7.3650 N.pl3 150  ARG150      0.1354
    109  NH2       33.4850   13.0370    8.4300 N.pl3 150  ARG150      0.1354
    110  N         35.4490   16.6030    6.6760 N.3   153  THR153     -0.1203
    111  CA        36.2640   15.4790    7.1290 C.3   153  THR153      0.1994
    112  C         36.3750   15.4120    8.6450 C.2   153  THR153      0.2618
    113  O         36.8490   14.4230    9.1930 O.2   153  THR153     -0.2717
    114  CB        37.6870   15.5790    6.5770 C.3   153  THR153      0.1784
    115  OG1       38.2260   16.8590    6.9230 O.3   153  THR153     -0.2211
    116  CG2       37.6940   15.4130    5.0700 C.3   153  THR153      0.0376
    117  N         35.9520   16.4700    9.3250 N.am  154  GLY154     -0.1942
    118  CA        36.0360   16.4680   10.7710 C.3   154  GLY154      0.2014
    119  C         35.5240   17.7480   11.3900 C.2   154  GLY154      0.2639
    120  O         35.1270   18.6710   10.6860 O.2   154  GLY154     -0.2714
    121  N         35.5470   17.7950   12.7160 N.am  155  LEU155     -0.1963
    122  CA        35.0820   18.9480   13.4730 C.3   155  LEU155      0.1728
    123  C         35.7740   20.2460   13.0620 C.2   155  LEU155      0.2616
    124  O         35.1160   21.2310   12.7110 O.2   155  LEU155     -0.2715
    125  CB        35.2870   18.6880   14.9710 C.3   155  LEU155      0.0311
    126  CG        34.8690   19.7560   15.9880 C.3   155  LEU155      0.0022
    127  CD1       33.4620   20.2440   15.6820 C.3   155  LEU155      0.0001
    128  CD2       34.9360   19.1680   17.3950 C.3   155  LEU155      0.0001
    129  N         37.1030   20.2450   13.1150 N.am  156  GLY156     -0.1955
    130  CA        37.8540   21.4310   12.7510 C.3   156  GLY156      0.1869
    131  C         37.5920   21.8570   11.3190 C.2   156  GLY156      0.2309
    132  O         37.3740   23.0390   11.0510 O.2   156  GLY156     -0.2863
@<TRIPOS>BOND
     1    99   100    1
     2   102   101    2
     3   101   100    1
     4   100   103    1
     5   103   104    1
     6   104   105    1
     7   105   106    1
     8   116   114    1
     9    49    48    1
    10   106   107    2
    11   114   115    1
    12   114   111    1
    13   110   111    1
    14    50    48    1
    15    48    47    2
    16   111   112    1
    17   107   108    1
    18   107   109    1
    19    47    46    1
    20   112   113    2
    21   112   117   am
    22    46    45    1
    23   117   118    1
    24    94    93    2
    25    98    96    1
    26    92    93    1
    27    92    91    1
    28    92    95    1
    29    45    44    1
    30   120   119    2
    31   118   119    1
    32   132   131    2
    33    44    41    1
    34    96    95    1
    35    96    97    1
    36   131   130    1
    37   119   121   am
    38    18    19    1
    39    22    19    1
    40    22    23    1
    41    20    19    1
    42    20    21    2
    43    41    42    1
    44    41    40    1
    45   124   123    2
    46   121   122    1
    47   130   129    1
    48    25    23    1
    49   123   129   am
    50   123   122    1
    51    42    43    2
    52    42    51   am
    53    23    24    1
    54    40    28   am
    55   122   125    1
    56    51    52    1
    57    52    53    1
    58    26    27    1
    59    28    29    2
    60    28    27    1
    61   125   126    1
    62    27    30    1
    63   127   126    1
    64    53    55   am
    65    53    54    2
    66    36    38   ar
    67    36    33   ar
    68   126   128    1
    69    38    39   ar
    70    30    31    1
    71    55    56    1
    72    33    31   ar
    73    33    35   ar
    74    39    37   ar
    75    31    32   ar
    76    56    59    1
    77    56    57    1
    78    69    68    1
    79    67    68    1
    80    67    64    1
    81    63    57   am
    82    63    64    1
    83    59    60    1
    84    35    37   ar
    85    35    34   ar
    86    75    72    1
    87    32    34   ar
    88    68    70    1
    89    57    58    2
    90    71    72    1
    91    71    65   am
    92    64    65    1
    93    72    73    1
    94    65    66    2
    95    60    62   am
    96    60    61    2
    97    73    74    2
    98    90    88    1
    99     9     8    2
   100    16    15    2
   101    12    10    1
   102     8     7    1
   103     8    13   am
   104    88    87    1
   105    15    14    1
   106     7    10    1
   107     7     6    1
   108    87    89    1
   109    87    84    1
   110    76    77    1
   111    82    80    1
   112    11    10    1
   113    81    80    1
   114    14    13    1
   115    14    17    1
   116    83    84    1
   117    83    78   am
   118    80    77    1
   119    84    85    1
   120    77    78    1
   121    78    79    2
   122    85    86    2
   123     4     3    2
   124     3     2    1
   125     2     5    1
   126     2     1    1
