@<TRIPOS>MOLECULE
tmp/1okcA05.pdb
 94 90 0 0 0
SMALL
GASTEIGER

@<TRIPOS>ATOM
      1  N         14.2730   29.8040   21.4540 N.3   180  GLN180     -0.1245
      2  CA        12.8220   29.7230   21.6100 C.3   180  GLN180      0.1566
      3  C         12.5360   28.2850   22.0340 C.2   180  GLN180      0.2260
      4  O         11.7160   28.0300   22.9200 O.2   180  GLN180     -0.2867
      5  CB        12.1140   29.9990   20.2770 C.3   180  GLN180      0.0367
      6  CG        12.1550   31.4330   19.7950 C.3   180  GLN180      0.0905
      7  CD        11.5290   31.5960   18.4150 C.2   180  GLN180      0.2608
      8  OE1       10.5800   30.8940   18.0610 O.2   180  GLN180     -0.2717
      9  NE2       12.0510   32.5350   17.6370 N.am  180  GLN180     -0.0878
     10  N         10.4710   26.7880   25.3130 N.3   184  ILE184     -0.1245
     11  CA         9.2920   25.9450   25.1500 C.3   184  ILE184      0.1561
     12  C          9.5620   24.6310   25.8770 C.2   184  ILE184      0.2260
     13  O          8.7130   24.1200   26.6070 O.2   184  ILE184     -0.2867
     14  CB         9.0160   25.6390   23.6530 C.3   184  ILE184      0.0252
     15  CG1        8.6690   26.9300   22.8980 C.3   184  ILE184      0.0019
     16  CG2        7.8840   24.6260   23.5270 C.3   184  ILE184      0.0019
     17  CD1        7.3110   27.5330   23.2540 C.3   184  ILE184      0.0001
     18  N          7.4570   23.1720   28.9850 N.3   188  ALA188     -0.1245
     19  CA         6.7550   21.8970   28.9000 C.3   188  ALA188      0.1562
     20  C          7.2330   20.9400   29.9840 C.2   188  ALA188      0.2260
     21  O          6.4280   20.2670   30.6360 O.2   188  ALA188     -0.2867
     22  CB         6.9630   21.2710   27.5160 C.3   188  ALA188      0.0290
     23  N          4.6640   19.8510   32.8250 N.3   192  VAL192     -0.1245
     24  CA         4.2380   18.4570   32.8910 C.3   192  VAL192      0.1561
     25  C          4.6130   17.8330   34.2240 C.2   192  VAL192      0.2260
     26  O          3.7570   17.2920   34.9240 O.2   192  VAL192     -0.2867
     27  CB         4.8740   17.6090   31.7590 C.3   192  VAL192      0.0252
     28  CG1        4.5750   16.1350   31.9790 C.3   192  VAL192      0.0019
     29  CG2        4.3300   18.0460   30.4120 C.3   192  VAL192      0.0019
     30  N          8.0420   13.8770   26.5450 N.3   221  VAL221     -0.1245
     31  CA         6.9670   14.8000   26.2100 C.3   221  VAL221      0.1561
     32  C          7.4930   16.2100   25.9620 C.2   221  VAL221      0.2260
     33  O          7.0740   16.8730   25.0040 O.2   221  VAL221     -0.2867
     34  CB         5.8950   14.8540   27.3230 C.3   221  VAL221      0.0252
     35  CG1        4.8590   15.9190   26.9960 C.3   221  VAL221      0.0019
     36  CG2        5.2160   13.4930   27.4540 C.3   221  VAL221      0.0019
     37  N          9.0750   16.3010   22.6250 N.3   224  LEU224     -0.1231
     38  CA         8.1320   16.2500   21.5170 C.3   224  LEU224      0.1693
     39  C          7.4900   17.6070   21.2430 C.2   224  LEU224      0.2591
     40  O          7.4220   18.0530   20.0970 O.2   224  LEU224     -0.2718
     41  CB         7.0440   15.2040   21.7990 C.3   224  LEU224      0.0284
     42  CG         7.5190   13.7580   21.6240 C.3   224  LEU224      0.0019
     43  CD1        6.5550   12.7820   22.2920 C.3   224  LEU224      0.0001
     44  CD2        7.6650   13.4630   20.1340 C.3   224  LEU224      0.0001
     45  N          7.0290   18.2560   22.3080 N.am  225  VAL225     -0.1980
     46  CA         6.3830   19.5580   22.2230 C.3   225  VAL225      0.1595
     47  C          7.2890   20.6030   21.5760 C.2   225  VAL225      0.2287
     48  O          6.8270   21.4450   20.8040 O.2   225  VAL225     -0.2864
     49  CB         5.9810   20.0580   23.6370 C.3   225  VAL225      0.0276
     50  CG1        5.4630   21.4830   23.5660 C.3   225  VAL225      0.0022
     51  CG2        4.9210   19.1340   24.2390 C.3   225  VAL225      0.0022
     52  N          9.3850   20.6100   16.9000 N.3   228  PRO228     -0.2102
     53  CA         9.2950   21.4330   15.6860 C.3   228  PRO228      0.1504
     54  C         10.3610   22.5260   15.6450 C.2   228  PRO228      0.2575
     55  O         10.9560   22.7910   14.5940 O.2   228  PRO228     -0.2718
     56  CB         7.8810   21.9950   15.7610 C.3   228  PRO228      0.0282
     57  CG         7.1250   20.8340   16.3600 C.3   228  PRO228      0.0208
     58  CD         8.0500   20.4000   17.4920 C.3   228  PRO228      0.0893
     59  N         10.6040   23.1560   16.7910 N.am  229  PHE229     -0.1977
     60  CA        11.6140   24.2090   16.8590 C.3   229  PHE229      0.1639
     61  C         13.0000   23.6350   16.5680 C.2   229  PHE229      0.2290
     62  O         13.8410   24.3020   15.9660 O.2   229  PHE229     -0.2864
     63  CB        11.5980   24.8890   18.2370 C.3   229  PHE229      0.0560
     64  CG        10.3340   25.6720   18.5130 C.ar  229  PHE229     -0.0200
     65  CD1        9.1400   25.0170   18.8020 C.ar  229  PHE229     -0.0042
     66  CD2       10.3320   27.0650   18.4370 C.ar  229  PHE229     -0.0042
     67  CE1        7.9630   25.7310   19.0090 C.ar  229  PHE229     -0.0003
     68  CE2        9.1590   27.7910   18.6410 C.ar  229  PHE229     -0.0003
     69  CZ         7.9710   27.1210   18.9270 C.ar  229  PHE229     -0.0000
     70  N          9.9370   27.8830    8.5390 N.3   256  TRP256     -0.1241
     71  CA         8.6760   27.3530    9.0630 C.3   256  TRP256      0.1605
     72  C          7.6510   27.1940    7.9350 C.2   256  TRP256      0.2264
     73  O          7.0030   26.1560    7.8100 O.2   256  TRP256     -0.2867
     74  CB         8.0620   28.2830   10.1180 C.3   256  TRP256      0.0550
     75  CG         8.7190   28.3030   11.4740 C.ar  256  TRP256      0.0003
     76  CD1        9.5860   29.2420   11.9480 C.ar  256  TRP256      0.0946
     77  CD2        8.4780   27.3950   12.5640 C.ar  256  TRP256      0.0152
     78  NE1        9.8930   28.9870   13.2650 N.ar  256  TRP256     -0.2442
     79  CE2        9.2280   27.8590   13.6680 C.ar  256  TRP256      0.0810
     80  CE3        7.6990   26.2390   12.7140 C.ar  256  TRP256      0.0012
     81  CZ2        9.2250   27.2080   14.9080 C.ar  256  TRP256      0.0191
     82  CZ3        7.6950   25.5880   13.9520 C.ar  256  TRP256      0.0001
     83  CH2        8.4540   26.0780   15.0300 C.ar  256  TRP256      0.0015
     84  N          8.0750   16.7240   12.5210 N.3   269  PHE269     -0.1241
     85  CA         8.4190   15.6510   13.4470 C.3   269  PHE269      0.1605
     86  C          9.2440   14.5200   12.8400 C.2   269  PHE269      0.2264
     87  O          9.3040   13.4190   13.3940 O.2   269  PHE269     -0.2867
     88  CB         7.1550   15.0690   14.0860 C.3   269  PHE269      0.0534
     89  CG         6.4030   16.0510   14.9350 C.ar  269  PHE269     -0.0203
     90  CD1        5.4490   16.8920   14.3700 C.ar  269  PHE269     -0.0042
     91  CD2        6.6830   16.1710   16.2930 C.ar  269  PHE269     -0.0042
     92  CE1        4.7810   17.8420   15.1460 C.ar  269  PHE269     -0.0003
     93  CE2        6.0230   17.1190   17.0810 C.ar  269  PHE269     -0.0003
     94  CZ         5.0700   17.9570   16.5060 C.ar  269  PHE269     -0.0000
@<TRIPOS>BOND
     1    73    72    2
     2    72    71    1
     3    70    71    1
     4    71    74    1
     5    74    75    1
     6    75    76   ar
     7    75    77   ar
     8    76    78   ar
     9    84    85    1
    10    77    80   ar
    11    77    79   ar
    12    80    82   ar
    13    86    87    2
    14    86    85    1
    15    78    79   ar
    16    85    88    1
    17    79    81   ar
    18    82    83   ar
    19    88    89    1
    20    90    89   ar
    21    90    92   ar
    22    55    54    2
    23    81    83   ar
    24    89    91   ar
    25    92    94   ar
    26    54    53    1
    27    54    59   am
    28    53    56    1
    29    53    52    1
    30    56    57    1
    31    62    61    2
    32    91    93   ar
    33    57    58    1
    34    94    93   ar
    35    61    60    1
    36    59    60    1
    37    60    63    1
    38    52    58    1
    39     9     7   am
    40     8     7    2
    41    63    64    1
    42     7     6    1
    43    66    64   ar
    44    66    68   ar
    45    64    65   ar
    46    68    69   ar
    47    65    67   ar
    48    69    67   ar
    49     6     5    1
    50    40    39    2
    51    44    42    1
    52     5     2    1
    53    48    47    2
    54    39    38    1
    55    39    45   am
    56     1     2    1
    57    38    41    1
    58    38    37    1
    59    47    46    1
    60     2     3    1
    61    42    41    1
    62    42    43    1
    63     3     4    2
    64    46    45    1
    65    46    49    1
    66    15    17    1
    67    15    14    1
    68    16    14    1
    69    50    49    1
    70    49    51    1
    71    14    11    1
    72    33    32    2
    73    11    10    1
    74    11    12    1
    75    12    13    2
    76    32    31    1
    77    31    30    1
    78    31    34    1
    79    35    34    1
    80    34    36    1
    81    22    19    1
    82    19    18    1
    83    19    20    1
    84    20    21    2
    85    29    27    1
    86    27    28    1
    87    27    24    1
    88    23    24    1
    89    24    25    1
    90    25    26    2
