@<TRIPOS>MOLECULE
tmp/1okcA02.pdb
 140 136 0 0 0
SMALL
GASTEIGER

@<TRIPOS>ATOM
      1  N         17.1580   11.6870    9.3510 N.3    34  LEU34      -0.1245
      2  CA        15.7460   11.7350    8.9830 C.3    34  LEU34       0.1561
      3  C         15.2150   13.1720    9.0810 C.2    34  LEU34       0.2260
      4  O         14.4440   13.6290    8.2340 O.2    34  LEU34      -0.2867
      5  CB        14.9290   10.8090    9.8980 C.3    34  LEU34       0.0270
      6  CG        15.1730    9.3030    9.7160 C.3    34  LEU34       0.0019
      7  CD1       14.5220    8.5300   10.8550 C.3    34  LEU34       0.0001
      8  CD2       14.6140    8.8460    8.3620 C.3    34  LEU34       0.0001
      9  N         14.2880    5.6520    4.2880 N.3    50  LYS50      -0.1231
     10  CA        12.8550    5.4380    4.4640 C.3    50  LYS50       0.1693
     11  C         12.4200    5.3950    5.9220 C.2    50  LYS50       0.2593
     12  O         11.2300    5.4890    6.2180 O.2    50  LYS50      -0.2718
     13  CB        12.4170    4.1560    3.7390 C.3    50  LYS50       0.0285
     14  CG        12.8610    4.1070    2.2750 C.3    50  LYS50       0.0035
     15  CD        12.0160    3.1680    1.4030 C.3    50  LYS50       0.0206
     16  CE        12.0360    1.7100    1.8770 C.3    50  LYS50       0.1093
     17  NZ        11.1380    1.4650    3.0470 N.3    50  LYS50      -0.1314
     18  N         13.3810    5.2690    6.8320 N.am   51  GLY51      -0.1942
     19  CA        13.0470    5.2270    8.2450 C.3    51  GLY51       0.2014
     20  C         14.2260    4.8410    9.1200 C.2    51  GLY51       0.2639
     21  O         15.3730    4.8390    8.6720 O.2    51  GLY51      -0.2714
     22  N         13.9380    4.4970   10.3690 N.am   52  ILE52      -0.1963
     23  CA        14.9700    4.1190   11.3260 C.3    52  ILE52       0.1727
     24  C         15.7100    2.8580   10.8890 C.2    52  ILE52       0.2616
     25  O         16.9380    2.8460   10.7660 O.2    52  ILE52      -0.2715
     26  CB        14.3490    3.8820   12.7180 C.3    52  ILE52       0.0290
     27  CG1       13.6620    5.1670   13.1950 C.3    52  ILE52       0.0022
     28  CG2       15.4300    3.4080   13.7050 C.3    52  ILE52       0.0023
     29  CD1       12.9020    5.0270   14.4980 C.3    52  ILE52       0.0001
     30  N         14.9430    1.8000   10.6540 N.am   53  ILE53      -0.1963
     31  CA        15.4970    0.5260   10.2420 C.3    53  ILE53       0.1727
     32  C         16.2440    0.6390    8.9260 C.2    53  ILE53       0.2616
     33  O         17.3800    0.1780    8.8120 O.2    53  ILE53      -0.2715
     34  CB        14.3830   -0.5360   10.1380 C.3    53  ILE53       0.0290
     35  CG1       13.8420   -0.8280   11.5430 C.3    53  ILE53       0.0022
     36  CG2       14.9200   -1.8030    9.4820 C.3    53  ILE53       0.0023
     37  CD1       12.6150   -1.7050   11.5640 C.3    53  ILE53       0.0001
     38  N         15.6130    1.2510    7.9330 N.am   54  ASP54      -0.1971
     39  CA        16.2500    1.4280    6.6400 C.3    54  ASP54       0.1709
     40  C         17.5400    2.2130    6.8290 C.2    54  ASP54       0.2293
     41  O         18.5420    1.9730    6.1570 O.2    54  ASP54      -0.2864
     42  CB        15.3290    2.1980    5.6930 C.3    54  ASP54       0.1436
     43  CG        15.9690    2.4510    4.3420 C.2    54  ASP54       0.3671
     44  OD1       16.2740    1.4660    3.6320 O.co2  54  ASP54      -0.2456
     45  OD2       16.1760    3.6330    3.9900 O.co2  54  ASP54      -0.2456
     46  N          8.0420   13.8770   26.5450 N.3   221  VAL221     -0.1245
     47  CA         6.9670   14.8000   26.2100 C.3   221  VAL221      0.1561
     48  C          7.4930   16.2100   25.9620 C.2   221  VAL221      0.2260
     49  O          7.0740   16.8730   25.0040 O.2   221  VAL221     -0.2867
     50  CB         5.8950   14.8540   27.3230 C.3   221  VAL221      0.0252
     51  CG1        4.8590   15.9190   26.9960 C.3   221  VAL221      0.0019
     52  CG2        5.2160   13.4930   27.4540 C.3   221  VAL221      0.0019
     53  N          9.0750   16.3010   22.6250 N.3   224  LEU224     -0.1231
     54  CA         8.1320   16.2500   21.5170 C.3   224  LEU224      0.1693
     55  C          7.4900   17.6070   21.2430 C.2   224  LEU224      0.2591
     56  O          7.4220   18.0530   20.0970 O.2   224  LEU224     -0.2718
     57  CB         7.0440   15.2040   21.7990 C.3   224  LEU224      0.0284
     58  CG         7.5190   13.7580   21.6240 C.3   224  LEU224      0.0019
     59  CD1        6.5550   12.7820   22.2920 C.3   224  LEU224      0.0001
     60  CD2        7.6650   13.4630   20.1340 C.3   224  LEU224      0.0001
     61  N          7.0290   18.2560   22.3080 N.am  225  VAL225     -0.1980
     62  CA         6.3830   19.5580   22.2230 C.3   225  VAL225      0.1595
     63  C          7.2890   20.6030   21.5760 C.2   225  VAL225      0.2287
     64  O          6.8270   21.4450   20.8040 O.2   225  VAL225     -0.2864
     65  CB         5.9810   20.0580   23.6370 C.3   225  VAL225      0.0276
     66  CG1        5.4630   21.4830   23.5660 C.3   225  VAL225      0.0022
     67  CG2        4.9210   19.1340   24.2390 C.3   225  VAL225      0.0022
     68  N          3.2850   17.3260    9.3960 N.3   266  LYS266     -0.1245
     69  CA         3.8570   16.1580   10.0500 C.3   266  LYS266      0.1561
     70  C          5.3730   16.1350    9.8920 C.2   266  LYS266      0.2260
     71  O          6.0810   15.5670   10.7230 O.2   266  LYS266     -0.2867
     72  CB         3.2720   14.8770    9.4530 C.3   266  LYS266      0.0271
     73  CG         1.8100   14.6750    9.7970 C.3   266  LYS266      0.0035
     74  CD         1.5550   14.9530   11.2850 C.3   266  LYS266      0.0206
     75  CE         0.0830   14.7490   11.6490 C.3   266  LYS266      0.1093
     76  NZ        -0.8190   15.8110   11.1000 N.3   266  LYS266     -0.1314
     77  N          8.0750   16.7240   12.5210 N.3   269  PHE269     -0.1227
     78  CA         8.4190   15.6510   13.4470 C.3   269  PHE269      0.1736
     79  C          9.2440   14.5200   12.8400 C.2   269  PHE269      0.2595
     80  O          9.3040   13.4190   13.3940 O.2   269  PHE269     -0.2718
     81  CB         7.1550   15.0690   14.0860 C.3   269  PHE269      0.0547
     82  CG         6.4030   16.0510   14.9350 C.ar  269  PHE269     -0.0202
     83  CD1        5.4490   16.8920   14.3700 C.ar  269  PHE269     -0.0042
     84  CD2        6.6830   16.1710   16.2930 C.ar  269  PHE269     -0.0042
     85  CE1        4.7810   17.8420   15.1460 C.ar  269  PHE269     -0.0003
     86  CE2        6.0230   17.1190   17.0810 C.ar  269  PHE269     -0.0003
     87  CZ         5.0700   17.9570   16.5060 C.ar  269  PHE269     -0.0000
     88  N          9.8590   14.7720   11.6920 N.am  270  LYS270     -0.1966
     89  CA        10.7060   13.7540   11.0840 C.3   270  LYS270      0.1728
     90  C         11.8670   13.5000   12.0510 C.2   270  LYS270      0.2617
     91  O         12.6040   14.4190   12.4050 O.2   270  LYS270     -0.2715
     92  CB        11.2480   14.2300    9.7310 C.3   270  LYS270      0.0311
     93  CG        10.2160   14.1980    8.6170 C.3   270  LYS270      0.0038
     94  CD        10.7580   14.7430    7.2960 C.3   270  LYS270      0.0206
     95  CE         9.7580   14.4970    6.1680 C.3   270  LYS270      0.1093
     96  NZ        10.1670   15.1210    4.8840 N.3   270  LYS270     -0.1314
     97  N         12.0110   12.2510   12.4820 N.am  271  GLY271     -0.1940
     98  CA        13.0750   11.8970   13.4060 C.3   271  GLY271      0.2014
     99  C         12.6450   12.0020   14.8630 C.2   271  GLY271      0.2639
    100  O         13.3870   11.6070   15.7600 O.2   271  GLY271     -0.2714
    101  N         11.4450   12.5250   15.1070 N.am  272  ALA272     -0.1963
    102  CA        10.9610   12.6870   16.4750 C.3   272  ALA272      0.1728
    103  C         10.9110   11.3860   17.2970 C.2   272  ALA272      0.2616
    104  O         11.2340   11.4020   18.4860 O.2   272  ALA272     -0.2715
    105  CB         9.6000   13.3740   16.4720 C.3   272  ALA272      0.0334
    106  N         10.5210   10.2690   16.6830 N.am  273  TRP273     -0.1960
    107  CA        10.4830    8.9980   17.4150 C.3   273  TRP273      0.1771
    108  C         11.9160    8.5910   17.7800 C.2   273  TRP273      0.2620
    109  O         12.1930    8.1740   18.9130 O.2   273  TRP273     -0.2715
    110  CB         9.8420    7.8910   16.5680 C.3   273  TRP273      0.0590
    111  CG         9.7800    6.5550   17.2790 C.ar  273  TRP273      0.0006
    112  CD1       10.1420    5.3360   16.7710 C.ar  273  TRP273      0.0946
    113  CD2        9.3110    6.3070   18.6140 C.ar  273  TRP273      0.0152
    114  NE1        9.9280    4.3500   17.7050 N.ar  273  TRP273     -0.2442
    115  CE2        9.4170    4.9170   18.8430 C.ar  273  TRP273      0.0810
    116  CE3        8.8080    7.1250   19.6360 C.ar  273  TRP273      0.0012
    117  CZ2        9.0370    4.3250   20.0540 C.ar  273  TRP273      0.0191
    118  CZ3        8.4290    6.5370   20.8420 C.ar  273  TRP273      0.0001
    119  CH2        8.5470    5.1480   21.0390 C.ar  273  TRP273      0.0015
    120  N         12.8150    8.7030   16.8020 N.am  274  SER274     -0.1950
    121  CA        14.2240    8.3930   17.0060 C.3   274  SER274      0.1924
    122  C         14.7360    9.2320   18.1760 C.2   274  SER274      0.2314
    123  O         15.5090    8.7550   19.0050 O.2   274  SER274     -0.2863
    124  CB        15.0370    8.7440   15.7570 C.3   274  SER274      0.2116
    125  OG        14.6860    7.9390   14.6490 O.3   274  SER274     -0.2180
    126  N         13.0260   10.3570   20.7120 N.3   276  VAL276     -0.1231
    127  CA        12.4880    9.8310   21.9600 C.3   276  VAL276      0.1692
    128  C         13.3850    8.6850   22.4310 C.2   276  VAL276      0.2591
    129  O         13.7570    8.6100   23.6030 O.2   276  VAL276     -0.2718
    130  CB        11.0590    9.2780   21.7820 C.3   276  VAL276      0.0266
    131  CG1       10.6360    8.5340   23.0510 C.3   276  VAL276      0.0020
    132  CG2       10.0880   10.4120   21.4830 C.3   276  VAL276      0.0020
    133  N         13.7280    7.8020   21.5020 N.am  277  LEU277     -0.1980
    134  CA        14.5770    6.6610   21.8130 C.3   277  LEU277      0.1596
    135  C         15.9510    7.1050   22.2820 C.2   277  LEU277      0.2287
    136  O         16.4760    6.5850   23.2680 O.2   277  LEU277     -0.2864
    137  CB        14.7120    5.7600   20.5880 C.3   277  LEU277      0.0297
    138  CG        13.3620    5.2480   20.0910 C.3   277  LEU277      0.0022
    139  CD1       13.5740    4.2350   18.9870 C.3   277  LEU277      0.0001
    140  CD2       12.5930    4.6300   21.2550 C.3   277  LEU277      0.0001
@<TRIPOS>BOND
     1    15    16    1
     2    15    14    1
     3    16    17    1
     4    14    13    1
     5    44    43   ar
     6    13    10    1
     7    45    43   ar
     8     9    10    1
     9    43    42    1
    10    10    11    1
    11    96    95    1
    12    42    39    1
    13    11    12    2
    14    11    18   am
    15    41    40    2
    16    95    94    1
    17    39    40    1
    18    39    38    1
    19    18    19    1
    20    94    93    1
    21    38    32   am
    22     4     3    2
    23    19    20    1
    24     8     6    1
    25    93    92    1
    26    21    20    2
    27    33    32    2
    28    32    31    1
    29     2     3    1
    30     2     1    1
    31     2     5    1
    32    20    22   am
    33    68    69    1
    34    72    73    1
    35    72    69    1
    36    36    34    1
    37     6     5    1
    38     6     7    1
    39    92    89    1
    40    73    74    1
    41    70    69    1
    42    70    71    2
    43    34    31    1
    44    34    35    1
    45    31    30    1
    46    22    23    1
    47    30    24   am
    48    25    24    2
    49    24    23    1
    50    89    88    1
    51    89    90    1
    52    76    75    1
    53    74    75    1
    54    23    26    1
    55    35    37    1
    56    88    79   am
    57    90    91    2
    58    90    97   am
    59    97    98    1
    60    77    78    1
    61    26    27    1
    62    26    28    1
    63    79    80    2
    64    79    78    1
    65    27    29    1
    66    98    99    1
    67    78    81    1
    68    81    82    1
    69    83    82   ar
    70    83    85   ar
    71   125   124    1
    72    99   101   am
    73    99   100    2
    74    82    84   ar
    75   101   102    1
    76    85    87   ar
    77   124   121    1
    78    84    86   ar
    79   105   102    1
    80   102   103    1
    81    87    86   ar
    82   110   111    1
    83   110   107    1
    84   106   103   am
    85   106   107    1
    86   112   111   ar
    87   112   114   ar
    88   120   121    1
    89   120   108   am
    90   121   122    1
    91   111   113   ar
    92   103   104    2
    93   107   108    1
    94   114   115   ar
    95   108   109    2
    96   122   123    2
    97   113   115   ar
    98   113   116   ar
    99   115   117   ar
   100   139   138    1
   101   116   118   ar
   102   117   119   ar
   103   138   137    1
   104   138   140    1
   105    56    55    2
   106    60    58    1
   107   137   134    1
   108   126   127    1
   109    64    63    2
   110   118   119   ar
   111    55    54    1
   112    55    61   am
   113   132   130    1
   114   133   134    1
   115   133   128   am
   116    54    57    1
   117    54    53    1
   118    63    62    1
   119    58    57    1
   120    58    59    1
   121   130   127    1
   122   130   131    1
   123   134   135    1
   124   127   128    1
   125    62    61    1
   126    62    65    1
   127   135   136    2
   128   128   129    2
   129    66    65    1
   130    65    67    1
   131    49    48    2
   132    48    47    1
   133    47    46    1
   134    47    50    1
   135    51    50    1
   136    50    52    1
