@<TRIPOS>MOLECULE
tmp/1okeB02.pdb
 145 133 0 0 0
SMALL
GASTEIGER

@<TRIPOS>ATOM
      1  N        -17.1060   59.6890   -3.6450 N.3    48  THR48      -0.1203
      2  CA       -16.4800   58.4500   -3.2310 C.3    48  THR48       0.1994
      3  C        -17.3010   57.9400   -2.0660 C.2    48  THR48       0.2618
      4  O        -17.2900   58.5410   -0.9840 O.2    48  THR48      -0.2717
      5  CB       -15.0410   58.6460   -2.7360 C.3    48  THR48       0.1784
      6  OG1      -14.2150   59.0850   -3.8150 O.3    48  THR48      -0.2211
      7  CG2      -14.4950   57.3340   -2.1790 C.3    48  THR48       0.0376
      8  N        -18.0180   56.8430   -2.2800 N.am   49  GLU49      -0.1965
      9  CA       -18.8360   56.2760   -1.2220 C.3    49  GLU49       0.1733
     10  C        -18.3450   54.9110   -0.7610 C.2    49  GLU49       0.2616
     11  O        -18.1000   54.0210   -1.5790 O.2    49  GLU49      -0.2715
     12  CB       -20.2810   56.1820   -1.6870 C.3    49  GLU49       0.0429
     13  CG       -21.1800   55.5120   -0.6940 C.3    49  GLU49       0.1163
     14  CD       -22.6210   55.9080   -0.8740 C.2    49  GLU49       0.3649
     15  OE1      -23.2720   55.4030   -1.8070 O.co2  49  GLU49      -0.2457
     16  OE2      -23.0970   56.7430   -0.0770 O.co2  49  GLU49      -0.2457
     17  N        -18.1850   54.7630    0.5520 N.am   50  ALA50      -0.1977
     18  CA       -17.7480   53.4990    1.1370 C.3    50  ALA50       0.1597
     19  C        -19.0090   52.7840    1.6100 C.2    50  ALA50       0.2287
     20  O        -19.7080   53.2630    2.5060 O.2    50  ALA50      -0.2864
     21  CB       -16.8110   53.7480    2.2970 C.3    50  ALA50       0.0319
     22  N        -12.0150   50.5680    6.0020 N.3   130  VAL130     -0.1245
     23  CA       -12.4100   50.6310    4.6160 C.3   130  VAL130      0.1561
     24  C        -11.5800   49.6640    3.7950 C.2   130  VAL130      0.2260
     25  O        -10.3500   49.6350    3.9080 O.2   130  VAL130     -0.2867
     26  CB       -12.2370   52.0440    4.0860 C.3   130  VAL130      0.0252
     27  CG1      -12.5040   52.0870    2.6150 C.3   130  VAL130      0.0019
     28  CG2      -13.1970   52.9560    4.7970 C.3   130  VAL130      0.0019
     29  N        -15.4440   50.1790   -2.4420 N.3   135  LEU135     -0.1245
     30  CA       -15.4710   51.6340   -2.4860 C.3   135  LEU135      0.1561
     31  C        -16.0800   51.9850   -3.8340 C.2   135  LEU135      0.2260
     32  O        -15.5100   51.6590   -4.8710 O.2   135  LEU135     -0.2867
     33  CB       -14.0550   52.2170   -2.3990 C.3   135  LEU135      0.0270
     34  CG       -13.5230   52.5530   -1.0050 C.3   135  LEU135      0.0019
     35  CD1      -12.0610   52.9920   -1.0770 C.3   135  LEU135      0.0001
     36  CD2      -14.3960   53.6550   -0.3980 C.3   135  LEU135      0.0001
     37  N         -2.7510   54.7640   -0.2620 N.3   191  LEU191     -0.1245
     38  CA        -2.3620   54.3150    1.0990 C.3   191  LEU191      0.1561
     39  C         -2.9330   52.9190    1.4290 C.2   191  LEU191      0.2260
     40  O         -3.8600   52.4520    0.7790 O.2   191  LEU191     -0.2867
     41  CB        -2.7950   55.3080    2.1800 C.3   191  LEU191      0.0270
     42  CG        -2.2410   54.9880    3.5830 C.3   191  LEU191      0.0019
     43  CD1       -0.7880   54.5250    3.4860 C.3   191  LEU191      0.0001
     44  CD2       -2.3350   56.2160    4.4850 C.3   191  LEU191      0.0001
     45  N         -5.1550   50.5550    3.2870 N.3   193  PHE193     -0.1241
     46  CA        -6.3730   50.5160    4.0800 C.3   193  PHE193      0.1605
     47  C         -6.3950   49.4360    5.1790 C.2   193  PHE193      0.2264
     48  O         -7.4280   49.2190    5.8200 O.2   193  PHE193     -0.2867
     49  CB        -7.6020   50.3650    3.1690 C.3   193  PHE193      0.0534
     50  CG        -7.9090   51.5850    2.3440 C.ar  193  PHE193     -0.0203
     51  CD1       -7.0290   52.0240    1.3630 C.ar  193  PHE193     -0.0042
     52  CD2       -9.0880   52.2950    2.5500 C.ar  193  PHE193     -0.0042
     53  CE1       -7.3160   53.1620    0.5950 C.ar  193  PHE193     -0.0003
     54  CE2       -9.3850   53.4330    1.7880 C.ar  193  PHE193     -0.0003
     55  CZ        -8.4960   53.8660    0.8090 C.ar  193  PHE193     -0.0000
     56  N        -10.7040   54.8170    9.2340 N.3   198  LEU198     -0.1245
     57  CA       -11.4860   56.0040    8.8760 C.3   198  LEU198      0.1561
     58  C        -12.2210   56.4530   10.1320 C.2   198  LEU198      0.2260
     59  O        -13.0920   55.7490   10.6220 O.2   198  LEU198     -0.2867
     60  CB       -12.5200   55.6850    7.8050 C.3   198  LEU198      0.0270
     61  CG       -13.5310   56.8230    7.6250 C.3   198  LEU198      0.0019
     62  CD1      -12.8170   58.0590    7.0940 C.3   198  LEU198      0.0001
     63  CD2      -14.6390   56.3880    6.6650 C.3   198  LEU198      0.0001
     64  N        -14.7350   59.0060   12.1360 N.3   200  GLN200     -0.1245
     65  CA       -15.8160   59.9510   11.9060 C.3   200  GLN200      0.1566
     66  C        -16.3190   60.5760   13.1840 C.2   200  GLN200      0.2260
     67  O        -16.6020   59.8690   14.1350 O.2   200  GLN200     -0.2867
     68  CB       -16.9890   59.2560   11.2240 C.3   200  GLN200      0.0367
     69  CG       -16.8670   59.1430    9.7090 C.3   200  GLN200      0.0905
     70  CD       -17.9520   58.2660    9.0860 C.2   200  GLN200      0.2608
     71  OE1      -18.0020   57.0510    9.3360 O.2   200  GLN200     -0.2717
     72  NE2      -18.8240   58.8720    8.2820 N.am  200  GLN200     -0.0878
     73  N        -14.2410   64.0030    9.1630 N.3   205  ALA205     -0.1245
     74  CA       -13.6610   62.6720    8.9620 C.3   205  ALA205      0.1562
     75  C        -12.1920   62.6470    8.5310 C.2   205  ALA205      0.2260
     76  O        -11.7770   63.4030    7.6570 O.2   205  ALA205     -0.2867
     77  CB       -14.4850   61.9310    7.9570 C.3   205  ALA205      0.0290
     78  N         -8.3830   59.9580    8.1130 N.3   207  LEU207     -0.1245
     79  CA        -7.8550   58.6280    7.9240 C.3   207  LEU207      0.1561
     80  C         -6.6700   58.6280    8.8890 C.2   207  LEU207      0.2260
     81  O         -5.7930   59.4850    8.7860 O.2   207  LEU207     -0.2867
     82  CB        -7.3980   58.4280    6.4900 C.3   207  LEU207      0.0270
     83  CG        -7.2210   56.9400    6.2020 C.3   207  LEU207      0.0019
     84  CD1       -8.5840   56.2660    6.3040 C.3   207  LEU207      0.0001
     85  CD2       -6.6280   56.7300    4.8160 C.3   207  LEU207      0.0001
     86  N         -4.6670   63.0050    7.8210 N.3   268  THR268     -0.1218
     87  CA        -5.3150   63.1860    6.5240 C.3   268  THR268      0.1862
     88  C         -6.8310   63.4270    6.6590 C.2   268  THR268      0.2287
     89  O         -7.5660   62.5910    7.1930 O.2   268  THR268     -0.2866
     90  CB        -5.0920   61.9670    5.6410 C.3   268  THR268      0.1770
     91  OG1       -3.6940   61.7980    5.4130 O.3   268  THR268     -0.2211
     92  CG2       -5.7820   62.1510    4.3140 C.3   268  THR268      0.0375
     93  N        -10.7130   63.9350    5.3390 N.3   270  ILE270     -0.1231
     94  CA       -11.5690   63.4170    4.2840 C.3   270  ILE270      0.1692
     95  C        -12.6690   64.3980    3.9550 C.2   270  ILE270      0.2591
     96  O        -12.9670   64.6280    2.7870 O.2   270  ILE270     -0.2718
     97  CB       -12.2350   62.1030    4.6720 C.3   270  ILE270      0.0266
     98  CG1      -11.1780   61.0560    5.0730 C.3   270  ILE270      0.0019
     99  CG2      -13.0740   61.6150    3.5050 C.3   270  ILE270      0.0020
    100  CD1       -9.9360   61.0750    4.2630 C.3   270  ILE270      0.0001
    101  N        -13.2910   64.9580    4.9890 N.am  271  GLN271     -0.1979
    102  CA       -14.3250   65.9640    4.7860 C.3   271  GLN271      0.1601
    103  C        -14.6380   66.7260    6.0810 C.2   271  GLN271      0.2287
    104  O        -14.5440   66.1570    7.1690 O.2   271  GLN271     -0.2864
    105  CB       -15.5890   65.3270    4.2000 C.3   271  GLN271      0.0394
    106  CG       -16.4310   64.4880    5.1400 C.3   271  GLN271      0.0908
    107  CD       -17.7820   64.1060    4.5130 C.2   271  GLN271      0.2608
    108  OE1      -18.6410   63.5200    5.1690 O.2   271  GLN271     -0.2717
    109  NE2      -17.9660   64.4410    3.2400 N.am  271  GLN271     -0.0878
    110  N        -20.8160   68.0790    5.4660 N.3   274  SER274     -0.1217
    111  CA       -21.6320   66.9300    5.0580 C.3   274  SER274      0.1889
    112  C        -21.3420   66.4220    3.6440 C.2   274  SER274      0.2288
    113  O        -21.1140   65.2220    3.4460 O.2   274  SER274     -0.2866
    114  CB       -23.1250   67.2700    5.1580 C.3   274  SER274      0.2089
    115  OG       -23.5250   68.1540    4.1200 O.3   274  SER274     -0.2183
    116  N        -16.4080   66.3590    0.1630 N.3   277  LEU277     -0.1245
    117  CA       -15.2780   65.4450    0.2040 C.3   277  LEU277      0.1561
    118  C        -14.0370   66.2460   -0.2020 C.2   277  LEU277      0.2260
    119  O        -14.0080   66.8490   -1.2710 O.2   277  LEU277     -0.2867
    120  CB       -15.5150   64.2670   -0.7500 C.3   277  LEU277      0.0270
    121  CG       -16.6200   63.2860   -0.3120 C.3   277  LEU277      0.0019
    122  CD1      -16.8560   62.2440   -1.3830 C.3   277  LEU277      0.0001
    123  CD2      -16.2110   62.5950    0.9620 C.3   277  LEU277      0.0001
    124  N        -10.4260   65.0170    0.3680 N.3   279  PHE279     -0.1227
    125  CA        -9.4730   64.0980   -0.2500 C.3   279  PHE279      0.1736
    126  C        -10.0930   62.6980   -0.2680 C.2   279  PHE279      0.2596
    127  O        -11.0660   62.4640    0.4380 O.2   279  PHE279     -0.2718
    128  CB        -8.1640   64.0800    0.5400 C.3   279  PHE279      0.0547
    129  CG        -7.0960   63.2740   -0.1050 C.ar  279  PHE279     -0.0202
    130  CD1       -6.7170   63.5400   -1.4160 C.ar  279  PHE279     -0.0042
    131  CD2       -6.4810   62.2220    0.5790 C.ar  279  PHE279     -0.0042
    132  CE1       -5.7390   62.7640   -2.0440 C.ar  279  PHE279     -0.0003
    133  CE2       -5.5000   61.4400   -0.0390 C.ar  279  PHE279     -0.0003
    134  CZ        -5.1300   61.7110   -1.3530 C.ar  279  PHE279     -0.0000
    135  N         -9.5410   61.7680   -1.0550 N.am  280  THR280     -0.1939
    136  CA       -10.0770   60.4080   -1.1380 C.3   280  THR280      0.2028
    137  C         -9.0730   59.4390   -1.7540 C.2   280  THR280      0.2642
    138  O         -9.3330   58.2380   -1.8470 O.2   280  THR280     -0.2714
    139  CB       -11.3620   60.3790   -1.9830 C.3   280  THR280      0.1808
    140  OG1      -12.4080   61.0770   -1.2960 O.3   280  THR280     -0.2208
    141  CG2      -11.8100   58.9800   -2.2280 C.3   280  THR280      0.0379
    142  N         -7.9180   59.9550   -2.1550 N.am  281  GLY281     -0.1954
    143  CA        -6.9210   59.1080   -2.7780 C.3   281  GLY281      0.1869
    144  C         -7.0070   59.3000   -4.2840 C.2   281  GLY281      0.2309
    145  O         -7.9070   59.9920   -4.7840 O.2   281  GLY281     -0.2863
@<TRIPOS>BOND
     1    32    31    2
     2   145   144    2
     3   144   143    1
     4    31    30    1
     5     6     5    1
     6     1     2    1
     7     2     5    1
     8     2     3    1
     9   143   142    1
    10     5     7    1
    11    30    29    1
    12    30    33    1
    13    33    34    1
    14     8     3   am
    15     8     9    1
    16   141   139    1
    17   142   137   am
    18     3     4    2
    19   132   130   ar
    20   132   134   ar
    21   139   140    1
    22   139   136    1
    23   138   137    2
    24    15    14   ar
    25   137   136    1
    26    12     9    1
    27    12    13    1
    28    11    10    2
    29   130   129   ar
    30   122   121    1
    31   134   133   ar
    32   119   118    2
    33     9    10    1
    34   136   135    1
    35    35    34    1
    36   135   126   am
    37    34    36    1
    38    14    13    1
    39    14    16   ar
    40    10    17   am
    41   120   121    1
    42   120   117    1
    43   121   123    1
    44   126   125    1
    45   126   127    2
    46    37    38    1
    47   125   124    1
    48   125   128    1
    49   118   117    1
    50   129   128    1
    51   129   131   ar
    52   133   131   ar
    53   116   117    1
    54    17    18    1
    55    53    55   ar
    56    53    51   ar
    57    40    39    2
    58    55    54   ar
    59    38    39    1
    60    38    41    1
    61    18    19    1
    62    18    21    1
    63    51    50   ar
    64    19    20    2
    65    54    52   ar
    66    41    42    1
    67    50    52   ar
    68    50    49    1
    69    27    26    1
    70    96    95    2
    71    49    46    1
    72   109   107   am
    73    45    46    1
    74   113   112    2
    75    43    42    1
    76    99    97    1
    77    42    44    1
    78   112   111    1
    79    24    25    2
    80    24    23    1
    81    95    94    1
    82    95   101   am
    83    46    47    1
    84    26    23    1
    85    26    28    1
    86   115   114    1
    87   105   102    1
    88   105   106    1
    89   100    98    1
    90    94    97    1
    91    94    93    1
    92    92    90    1
    93   107   106    1
    94   107   108    2
    95    23    22    1
    96    97    98    1
    97   102   101    1
    98   102   103    1
    99    85    83    1
   100   111   114    1
   101   111   110    1
   102    47    48    2
   103    91    90    1
   104    90    87    1
   105   103   104    2
   106    83    84    1
   107    83    82    1
   108    82    79    1
   109    87    88    1
   110    87    86    1
   111    88    89    2
   112    63    61    1
   113    62    61    1
   114    61    60    1
   115    76    75    2
   116    60    57    1
   117    79    78    1
   118    79    80    1
   119    77    74    1
   120    72    70   am
   121    75    74    1
   122    81    80    2
   123    57    56    1
   124    57    58    1
   125    74    73    1
   126    70    71    2
   127    70    69    1
   128    69    68    1
   129    58    59    2
   130    68    65    1
   131    65    64    1
   132    65    66    1
   133    66    67    2
