@<TRIPOS>MOLECULE
tmp/1okkA01.pdb
 89 86 0 0 0
SMALL
GASTEIGER

@<TRIPOS>ATOM
      1  N         68.0290   91.0520   93.4500 N.3   244  LEU244     -0.1245
      2  CA        66.9140   91.9940   93.4030 C.3   244  LEU244      0.1561
      3  C         65.8550   91.6300   92.3400 C.2   244  LEU244      0.2260
      4  O         64.7900   92.2640   92.2550 O.2   244  LEU244     -0.2867
      5  CB        67.4460   93.3920   93.1690 C.3   244  LEU244      0.0270
      6  CG        68.0210   94.0840   94.3990 C.3   244  LEU244      0.0019
      7  CD1       68.7670   95.3200   93.9220 C.3   244  LEU244      0.0001
      8  CD2       66.9270   94.4460   95.4290 C.3   244  LEU244      0.0001
      9  N         73.5300   96.7940   91.6940 N.3   267  ALA267     -0.1245
     10  CA        72.4310   95.8570   91.9190 C.3   267  ALA267      0.1562
     11  C         72.5880   94.6270   91.0320 C.2   267  ALA267      0.2260
     12  O         72.8250   94.7540   89.8310 O.2   267  ALA267     -0.2867
     13  CB        71.1230   96.5360   91.5900 C.3   267  ALA267      0.0290
     14  N         70.5760   91.6590   89.3090 N.3   269  VAL269     -0.1245
     15  CA        69.2160   91.5370   88.8220 C.3   269  VAL269      0.1561
     16  C         68.9960   90.2630   87.9960 C.2   269  VAL269      0.2260
     17  O         67.9230   90.0910   87.4140 O.2   269  VAL269     -0.2867
     18  CB        68.8200   92.7910   87.9700 C.3   269  VAL269      0.0252
     19  CG1       68.9570   94.0470   88.7840 C.3   269  VAL269      0.0019
     20  CG2       69.6860   92.9100   86.7330 C.3   269  VAL269      0.0019
     21  N         73.5560   96.2050   87.1560 N.3   277  GLU277     -0.1231
     22  CA        73.4110   97.5950   86.7720 C.3   277  GLU277      0.1684
     23  C         73.7030   98.4480   87.9840 C.2   277  GLU277      0.2434
     24  O         73.7150   97.9540   89.1060 O.2   277  GLU277     -0.2733
     25  CB        72.0080   97.8740   86.1950 C.3   277  GLU277      0.0402
     26  CG        70.8540   97.6580   87.1540 C.3   277  GLU277      0.1161
     27  CD        69.5420   98.2320   86.6440 C.2   277  GLU277      0.3649
     28  OE1       68.5950   98.2450   87.4310 O.co2 277  GLU277     -0.2457
     29  OE2       69.4610   98.6830   85.4790 O.co2 277  GLU277     -0.2457
     30  N         73.9310   99.7340   87.7740 N.am  278  PRO278     -0.2718
     31  CA        74.0630  100.6440   88.9050 C.3   278  PRO278      0.1535
     32  C         72.8530  100.5840   89.8530 C.2   278  PRO278      0.2599
     33  O         71.6970  100.4050   89.4350 O.2   278  PRO278     -0.2715
     34  CB        74.1490  102.0220   88.2430 C.3   278  PRO278      0.0310
     35  CG        74.6490  101.7490   86.8600 C.3   278  PRO278      0.0237
     36  CD        74.0340  100.4300   86.4810 C.3   278  PRO278      0.0939
     37  N         73.1430  100.7360   91.1370 N.am  279  PHE279     -0.1960
     38  CA        72.1150  100.8590   92.1520 C.3   279  PHE279      0.1771
     39  C         71.4590  102.2370   92.0460 C.2   279  PHE279      0.2619
     40  O         72.1540  103.2360   91.9210 O.2   279  PHE279     -0.2715
     41  CB        72.7440  100.6690   93.5320 C.3   279  PHE279      0.0574
     42  CG        71.7800  100.8090   94.6490 C.ar  279  PHE279     -0.0200
     43  CD1       70.8660   99.8150   94.9090 C.ar  279  PHE279     -0.0042
     44  CD2       71.7670  101.9520   95.4390 C.ar  279  PHE279     -0.0042
     45  CE1       69.9480   99.9450   95.9300 C.ar  279  PHE279     -0.0003
     46  CE2       70.8520  102.0600   96.5010 C.ar  279  PHE279     -0.0003
     47  CZ        69.9540  101.0720   96.7360 C.ar  279  PHE279     -0.0000
     48  N         70.1260  102.2670   92.0830 N.am  280  TYR280     -0.1974
     49  CA        69.3330  103.5080   92.0030 C.3   280  TYR280      0.1639
     50  C         68.5740  103.6260   93.3130 C.2   280  TYR280      0.2290
     51  O         67.5940  102.9120   93.5250 O.2   280  TYR280     -0.2864
     52  CB        68.3530  103.4610   90.8100 C.3   280  TYR280      0.0560
     53  CG        69.0560  103.3110   89.4840 C.ar  280  TYR280     -0.0198
     54  CD1       69.8980  104.3170   88.9950 C.ar  280  TYR280     -0.0009
     55  CD2       68.9290  102.1520   88.7340 C.ar  280  TYR280     -0.0009
     56  CE1       70.5740  104.1690   87.7840 C.ar  280  TYR280      0.0417
     57  CE2       69.5930  102.0040   87.5140 C.ar  280  TYR280      0.0417
     58  CZ        70.4200  103.0150   87.0520 C.ar  280  TYR280      0.1957
     59  OH        71.0950  102.8250   85.8620 O.3   280  TYR280     -0.2866
     60  N         64.8470  103.8120   93.1700 N.3   283  ARG283     -0.1231
     61  CA        64.0880  102.6000   92.8900 C.3   283  ARG283      0.1694
     62  C         63.9010  101.7400   94.1210 C.2   283  ARG283      0.2591
     63  O         62.7900  101.2330   94.3620 O.2   283  ARG283     -0.2718
     64  CB        64.7250  101.7610   91.7850 C.3   283  ARG283      0.0321
     65  CG        63.8520  100.5930   91.4060 C.3   283  ARG283      0.0489
     66  CD        64.2980   99.8570   90.1720 C.3   283  ARG283      0.2205
     67  NE        63.4800   98.6840   89.9370 N.pl3 283  ARG283     -0.0865
     68  CZ        63.7890   97.7150   89.0850 C.cat 283  ARG283      0.5346
     69  NH1       64.8860   97.7910   88.3530 N.pl3 283  ARG283      0.1354
     70  NH2       62.9850   96.6730   88.9610 N.pl3 283  ARG283      0.1354
     71  N         64.9720  101.5410   94.8970 N.am  284  LEU284     -0.1980
     72  CA        64.8610  100.7180   96.0900 C.3   284  LEU284      0.1596
     73  C         63.9970  101.3760   97.1510 C.2   284  LEU284      0.2287
     74  O         63.3130  100.6840   97.8960 O.2   284  LEU284     -0.2864
     75  CB        66.2210  100.3350   96.6570 C.3   284  LEU284      0.0297
     76  CG        66.1460   99.1180   97.5870 C.3   284  LEU284      0.0022
     77  CD1       66.1060   97.8230   96.7870 C.3   284  LEU284      0.0001
     78  CD2       67.2880   99.0980   98.5870 C.3   284  LEU284      0.0001
     79  N         60.5180  100.3780   96.2130 N.3   287  ARG287     -0.1245
     80  CA        60.2860   98.9720   96.5290 C.3   287  ARG287      0.1563
     81  C         60.1110   98.7390   98.0230 C.2   287  ARG287      0.2260
     82  O         59.2350   98.0000   98.4400 O.2   287  ARG287     -0.2867
     83  CB        61.4670   98.1610   96.0350 C.3   287  ARG287      0.0307
     84  CG        61.3750   96.7020   96.3050 C.3   287  ARG287      0.0489
     85  CD        62.1600   95.9800   95.3220 C.3   287  ARG287      0.2205
     86  NE        62.7240   94.7190   95.7290 N.pl3 287  ARG287     -0.0865
     87  CZ        63.1520   93.8400   94.8330 C.cat 287  ARG287      0.5346
     88  NH1       63.0840   94.1360   93.5440 N.pl3 287  ARG287      0.1354
     89  NH2       63.6550   92.6870   95.2100 N.pl3 287  ARG287      0.1354
@<TRIPOS>BOND
     1    29    27   ar
     2    59    58    1
     3    25    22    1
     4    25    26    1
     5    36    35    1
     6    36    30    1
     7    27    26    1
     8    27    28   ar
     9    20    18    1
    10    22    21    1
    11    22    23    1
    12    35    34    1
    13    58    57   ar
    14    58    56   ar
    15    17    16    2
    16    57    55   ar
    17    30    23   am
    18    30    31    1
    19    56    54   ar
    20    18    19    1
    21    18    15    1
    22    23    24    2
    23    16    15    1
    24    34    31    1
    25    69    68    1
    26    55    53   ar
    27    15    14    1
    28    31    32    1
    29    70    68    1
    30    54    53   ar
    31    68    67    2
    32    33    32    2
    33    53    52    1
    34    12    11    2
    35    32    37   am
    36    67    66    1
    37    66    65    1
    38    52    49    1
    39    11    10    1
    40    37    38    1
    41    65    64    1
    42    13    10    1
    43     9    10    1
    44    64    61    1
    45    40    39    2
    46    49    48    1
    47    49    50    1
    48    39    48   am
    49    39    38    1
    50    38    41    1
    51     4     3    2
    52     3     2    1
    53    61    60    1
    54    61    62    1
    55     5     2    1
    56     5     6    1
    57    50    51    2
    58     2     1    1
    59    41    42    1
    60    88    87    1
    61     7     6    1
    62    62    63    2
    63    62    71   am
    64     6     8    1
    65    42    43   ar
    66    42    44   ar
    67    87    89    1
    68    87    86    2
    69    71    72    1
    70    43    45   ar
    71    85    86    1
    72    85    84    1
    73    44    46   ar
    74    45    47   ar
    75    83    84    1
    76    83    80    1
    77    72    75    1
    78    72    73    1
    79    79    80    1
    80    46    47   ar
    81    80    81    1
    82    75    76    1
    83    77    76    1
    84    73    74    2
    85    76    78    1
    86    81    82    2
