@<TRIPOS>MOLECULE
tmp/1oklA00.pdb
 155 151 0 0 0
SMALL
GASTEIGER

@<TRIPOS>ATOM
      1  N         -0.5700   -2.2360    6.4210 N.3    60  HIS60      -0.1241
      2  CA        -0.6710   -2.9940    7.6780 C.3    60  HIS60       0.1621
      3  C         -2.0790   -3.5540    7.8370 C.2    60  HIS60       0.2264
      4  O         -2.2830   -4.5650    8.5100 O.2    60  HIS60      -0.2867
      5  CB        -0.3280   -2.1500    8.9100 C.3    60  HIS60       0.0745
      6  CG         0.1580   -0.7720    8.5970 C.ar   60  HIS60       0.0817
      7  ND1       -0.6140    0.3500    8.8080 N.ar   60  HIS60      -0.2268
      8  CD2        1.3360   -0.3310    8.0920 C.ar   60  HIS60       0.1154
      9  CE1        0.0650    1.4240    8.4430 C.ar   60  HIS60       0.1986
     10  NE2        1.2500    1.0370    8.0040 N.ar   60  HIS60      -0.2212
     11  N         -8.3370    0.3970    5.7700 N.3    63  ASN63      -0.1240
     12  CA        -9.1760    1.2920    6.5550 C.3    63  ASN63       0.1653
     13  C        -10.3360    1.8200    5.7490 C.2    63  ASN63       0.2266
     14  O        -10.1900    2.0790    4.5520 O.2    63  ASN63      -0.2867
     15  CB        -8.3900    2.5240    7.0080 C.3    63  ASN63       0.1155
     16  CG        -7.3020    2.2120    8.0000 C.2    63  ASN63       0.2627
     17  OD1       -6.5450    3.0990    8.3740 O.2    63  ASN63      -0.2716
     18  ND2       -7.2060    0.9690    8.4320 N.am   63  ASN63      -0.0877
     19  N        -13.9420    8.3470   12.8010 N.3    87  ILE87      -0.1231
     20  CA       -13.0870    8.7930   11.7250 C.3    87  ILE87       0.1692
     21  C        -12.7540    7.6110   10.7970 C.2    87  ILE87       0.2591
     22  O        -12.6860    7.7740    9.5760 O.2    87  ILE87      -0.2718
     23  CB       -11.8130    9.4710   12.2780 C.3    87  ILE87       0.0266
     24  CG1      -10.9400    9.9830   11.1270 C.3    87  ILE87       0.0019
     25  CG2      -11.0380    8.5180   13.1890 C.3    87  ILE87       0.0020
     26  CD1       -9.7030   10.7550   11.5810 C.3    87  ILE87       0.0001
     27  N        -12.6340    6.4110   11.3660 N.am   88  GLN88      -0.1979
     28  CA       -12.3070    5.2280   10.5750 C.3    88  GLN88       0.1601
     29  C        -12.4530    3.9300   11.3500 C.2    88  GLN88       0.2287
     30  O        -12.5490    3.9410   12.5800 O.2    88  GLN88      -0.2864
     31  CB       -10.8580    5.3230   10.0440 C.3    88  GLN88       0.0394
     32  CG        -9.7420    5.4210   11.1220 C.3    88  GLN88       0.0908
     33  CD        -8.9180    4.1400   11.2670 C.2    88  GLN88       0.2608
     34  OE1       -9.4370    3.0400   11.1380 O.2    88  GLN88      -0.2717
     35  NE2       -7.6280    4.2870   11.5390 N.am   88  GLN88      -0.0878
     36  N        -11.0700   -0.4110   11.0900 N.3    90  HIS90      -0.1241
     37  CA       -10.1820   -1.3840   10.4590 C.3    90  HIS90       0.1621
     38  C        -10.2680   -2.6950   11.2320 C.2    90  HIS90       0.2264
     39  O        -10.9770   -2.7840   12.2360 O.2    90  HIS90      -0.2867
     40  CB        -8.7380   -0.8690   10.4430 C.3    90  HIS90       0.0745
     41  CG        -8.2170   -0.5520   11.8330 C.ar   90  HIS90       0.0817
     42  ND1       -8.4070    0.6750   12.3160 N.ar   90  HIS90      -0.2268
     43  CD2       -7.5720   -1.2810   12.8570 C.ar   90  HIS90       0.1154
     44  CE1       -7.9260    0.7780   13.5830 C.ar   90  HIS90       0.1986
     45  NE2       -7.4090   -0.4320   13.9200 N.ar   90  HIS90      -0.2212
     46  N         -8.0440   -6.5910   12.4090 N.3    92  HIS92      -0.1241
     47  CA        -6.7900   -7.2920   12.6870 C.3    92  HIS92       0.1621
     48  C         -7.2540   -8.7390   12.5450 C.2    92  HIS92       0.2264
     49  O         -8.3410   -9.0810   13.0150 O.2    92  HIS92      -0.2867
     50  CB        -6.2860   -7.0420   14.1120 C.3    92  HIS92       0.0745
     51  CG        -6.0060   -5.5840   14.3790 C.ar   92  HIS92       0.0817
     52  ND1       -4.7550   -5.1370   14.2690 N.ar   92  HIS92      -0.2268
     53  CD2       -6.7990   -4.4660   14.6940 C.ar   92  HIS92       0.1154
     54  CE1       -4.7070   -3.7990   14.4960 C.ar   92  HIS92       0.1986
     55  NE2       -5.9700   -3.3850   14.7600 N.ar   92  HIS92      -0.2212
     56  N        -11.9750   -2.5260   14.9260 N.3   115  HIS115     -0.1241
     57  CA       -11.7520   -1.3330   15.7310 C.3   115  HIS115      0.1621
     58  C        -12.3730   -0.1130   15.0860 C.2   115  HIS115      0.2264
     59  O        -12.0050    0.2570   13.9600 O.2   115  HIS115     -0.2867
     60  CB       -10.2560   -1.0730   15.9200 C.3   115  HIS115      0.0745
     61  CG        -9.5830   -2.1250   16.7670 C.ar  115  HIS115      0.0817
     62  ND1       -8.2600   -2.2360   16.6970 N.ar  115  HIS115     -0.2268
     63  CD2      -10.0170   -3.1400   17.6430 C.ar  115  HIS115      0.1154
     64  CE1       -7.8230   -3.2650   17.4740 C.ar  115  HIS115      0.1986
     65  NE2       -8.9070   -3.8220   18.0530 N.ar  115  HIS115     -0.2212
     66  N        -12.5380    3.6260   15.3720 N.3   117  VAL117     -0.1245
     67  CA       -11.7940    4.7280   15.9660 C.3   117  VAL117      0.1561
     68  C        -12.5680    6.0320   16.0040 C.2   117  VAL117      0.2260
     69  O        -13.1730    6.4300   15.0040 O.2   117  VAL117     -0.2867
     70  CB       -10.4460    4.9370   15.2230 C.3   117  VAL117      0.0252
     71  CG1       -9.6350    6.0620   15.8680 C.3   117  VAL117      0.0019
     72  CG2       -9.6580    3.6370   15.2150 C.3   117  VAL117      0.0019
     73  N         -8.3710   15.2180   15.0100 N.3   126  PHE126     -0.1241
     74  CA        -7.7050   13.9940   15.4370 C.3   126  PHE126      0.1605
     75  C         -6.2460   14.2040   15.8910 C.2   126  PHE126      0.2264
     76  O         -5.7930   13.6170   16.8790 O.2   126  PHE126     -0.2867
     77  CB        -7.7750   12.9680   14.2980 C.3   126  PHE126      0.0534
     78  CG        -7.1050   11.6740   14.6140 C.ar  126  PHE126     -0.0203
     79  CD1       -5.7470   11.4980   14.3530 C.ar  126  PHE126     -0.0042
     80  CD2       -7.8130   10.6440   15.2260 C.ar  126  PHE126     -0.0042
     81  CE1       -5.1000   10.3160   14.7030 C.ar  126  PHE126     -0.0003
     82  CE2       -7.1780    9.4590   15.5790 C.ar  126  PHE126     -0.0003
     83  CZ        -5.8160    9.2960   15.3180 C.ar  126  PHE126     -0.0000
     84  N         -4.6640   13.0770   19.7200 N.3   130  VAL130     -0.1245
     85  CA        -3.5830   12.1480   20.0610 C.3   130  VAL130      0.1561
     86  C         -2.5320   12.7290   21.0070 C.2   130  VAL130      0.2260
     87  O         -1.5010   12.1070   21.2660 O.2   130  VAL130     -0.2867
     88  CB        -2.8810   11.5540   18.8000 C.3   130  VAL130      0.0252
     89  CG1       -3.8600   10.7180   18.0070 C.3   130  VAL130      0.0019
     90  CG2       -2.2710   12.6600   17.9330 C.3   130  VAL130      0.0019
     91  N         -8.9420    9.8330   22.4930 N.3   136  LEU136     -0.1245
     92  CA        -9.5280    8.8080   21.6340 C.3   136  LEU136      0.1561
     93  C        -10.3310    7.7520   22.3720 C.2   136  LEU136      0.2260
     94  O        -10.0680    7.4370   23.5360 O.2   136  LEU136     -0.2867
     95  CB        -8.4250    8.0860   20.8440 C.3   136  LEU136      0.0270
     96  CG        -7.4450    8.8890   19.9750 C.3   136  LEU136      0.0019
     97  CD1       -6.3730    7.9440   19.4200 C.3   136  LEU136      0.0001
     98  CD2       -8.1830    9.6170   18.8410 C.3   136  LEU136      0.0001
     99  N        -11.7980    3.8350   21.2950 N.3   138  VAL138     -0.1245
    100  CA       -11.8730    2.8160   20.2680 C.3   138  VAL138      0.1561
    101  C        -12.8580    1.7410   20.7130 C.2   138  VAL138      0.2260
    102  O        -12.8040    1.2530   21.8460 O.2   138  VAL138     -0.2867
    103  CB       -10.4790    2.1830   19.9340 C.3   138  VAL138      0.0252
    104  CG1      -10.6010    1.2080   18.7510 C.3   138  VAL138      0.0019
    105  CG2       -9.4660    3.2760   19.6010 C.3   138  VAL138      0.0019
    106  N         -2.8790    3.0630   21.3090 N.3   193  LEU193     -0.1231
    107  CA        -3.0360    2.6010   19.9340 C.3   193  LEU193      0.1693
    108  C         -2.2540    1.2930   19.9660 C.2   193  LEU193      0.2593
    109  O         -1.2290    1.1930   20.6530 O.2   193  LEU193     -0.2718
    110  CB        -2.3380    3.5250   18.9210 C.3   193  LEU193      0.0284
    111  CG        -2.4400    5.0520   18.9130 C.3   193  LEU193      0.0019
    112  CD1       -1.9050    5.5770   17.5870 C.3   193  LEU193      0.0001
    113  CD2       -3.8600    5.5000   19.0990 C.3   193  LEU193      0.0001
    114  N         -2.7060    0.3040   19.2080 N.am  194  THR194     -0.1939
    115  CA        -2.0230   -0.9750   19.1750 C.3   194  THR194      0.2028
    116  C         -0.9500   -1.0480   18.0790 C.2   194  THR194      0.2643
    117  O         -0.2920   -2.0760   17.9150 O.2   194  THR194     -0.2714
    118  CB        -3.0260   -2.0940   18.9830 C.3   194  THR194      0.1808
    119  OG1       -3.7480   -1.8630   17.7680 O.3   194  THR194     -0.2208
    120  CG2       -4.0110   -2.1370   20.1800 C.3   194  THR194      0.0379
    121  N         -0.8030    0.0290   17.3090 N.am  195  THR195     -0.1937
    122  CA         0.2020    0.0920   16.2430 C.3   195  THR195      0.2013
    123  C          0.9920    1.3740   16.4570 C.2   195  THR195      0.2484
    124  O          0.4800    2.3270   17.0580 O.2   195  THR195     -0.2729
    125  CB        -0.4410    0.1660   14.8320 C.3   195  THR195      0.1807
    126  OG1       -1.2430    1.3460   14.7390 O.3   195  THR195     -0.2208
    127  CG2       -1.3000   -1.0430   14.5500 C.3   195  THR195      0.0379
    128  N          2.2750    1.3960   16.0510 N.am  196  PRO196     -0.2715
    129  CA         3.0580    2.6200   16.2320 C.3   196  PRO196      0.1521
    130  C          2.2390    3.7830   15.6880 C.2   196  PRO196      0.2440
    131  O          1.5150    3.6180   14.6990 O.2   196  PRO196     -0.2731
    132  CB         4.2980    2.3410   15.3910 C.3   196  PRO196      0.0310
    133  CG         4.5240    0.8890   15.6690 C.3   196  PRO196      0.0237
    134  CD         3.1180    0.3130   15.5150 C.3   196  PRO196      0.0939
    135  N          2.3780    4.9850   16.2750 N.am  197  PRO197     -0.2727
    136  CA         3.2310    5.3790   17.4000 C.3   197  PRO197      0.1402
    137  C          2.8880    4.8680   18.8140 C.2   197  PRO197      0.2269
    138  O          3.5520    5.2510   19.7740 O.2   197  PRO197     -0.2865
    139  CB         3.2070    6.9030   17.3110 C.3   197  PRO197      0.0296
    140  CG         1.8170    7.1750   16.8630 C.3   197  PRO197      0.0237
    141  CD         1.5840    6.1310   15.7950 C.3   197  PRO197      0.0939
    142  N        -10.4380    2.3670   25.8340 N.3   204  TRP204     -0.1241
    143  CA       -10.9030    1.1840   25.1300 C.3   204  TRP204      0.1605
    144  C        -12.2520    0.6990   25.6290 C.2   204  TRP204      0.2264
    145  O        -12.5030    0.6330   26.8400 O.2   204  TRP204     -0.2867
    146  CB        -9.8820    0.0530   25.2470 C.3   204  TRP204      0.0550
    147  CG        -8.8040    0.1510   24.2340 C.ar  204  TRP204      0.0003
    148  CD1       -7.5840    0.7410   24.3870 C.ar  204  TRP204      0.0946
    149  CD2       -8.8480   -0.3440   22.8900 C.ar  204  TRP204      0.0152
    150  NE1       -6.8630    0.6470   23.2190 N.ar  204  TRP204     -0.2442
    151  CE2       -7.6110   -0.0170   22.2840 C.ar  204  TRP204      0.0810
    152  CE3       -9.8110   -1.0370   22.1370 C.ar  204  TRP204      0.0012
    153  CZ2       -7.3080   -0.3600   20.9580 C.ar  204  TRP204      0.0191
    154  CZ3       -9.5130   -1.3790   20.8210 C.ar  204  TRP204      0.0001
    155  CH2       -8.2680   -1.0390   20.2460 C.ar  204  TRP204      0.0015
@<TRIPOS>BOND
     1    14    13    2
     2    13    12    1
     3    11    12    1
     4     1     2    1
     5    12    15    1
     6    15    16    1
     7     2     3    1
     8     2     5    1
     9     3     4    2
    10    16    17    2
    11    16    18   am
    12    10     8   ar
    13    10     9   ar
    14     8     6   ar
    15     9     7   ar
    16     6     7   ar
    17     6     5    1
    18    22    21    2
    19    31    28    1
    20    31    32    1
    21    40    37    1
    22    40    41    1
    23    37    36    1
    24    37    38    1
    25    28    29    1
    26    28    27    1
    27    21    27   am
    28    21    20    1
    29    32    33    1
    30    24    26    1
    31    24    23    1
    32    34    33    2
    33    38    39    2
    34    33    35   am
    35    29    30    2
    36    20    23    1
    37    20    19    1
    38    41    42   ar
    39    41    43   ar
    40    23    25    1
    41    42    44   ar
    42    46    47    1
    43    48    47    1
    44    48    49    2
    45    47    50    1
    46    43    45   ar
    47    44    45   ar
    48    59    58    2
    49    50    51    1
    50    52    51   ar
    51    52    54   ar
    52    77    78    1
    53    77    74    1
    54    79    78   ar
    55    79    81   ar
    56    51    53   ar
    57    54    55   ar
    58   127   125    1
    59    78    80   ar
    60    53    55   ar
    61   131   130    2
    62    81    83   ar
    63   126   125    1
    64   125   122    1
    65    56    57    1
    66    69    68    2
    67    73    74    1
    68    58    57    1
    69    72    70    1
    70    70    71    1
    71    70    67    1
    72    80    82   ar
    73    83    82   ar
    74    66    67    1
    75   132   133    1
    76   132   129    1
    77    74    75    1
    78   134   133    1
    79   134   128    1
    80   130   129    1
    81   130   135   am
    82    57    60    1
    83   141   135    1
    84   141   140    1
    85    75    76    2
    86    60    61    1
    87    67    68    1
    88   128   129    1
    89   128   123   am
    90   122   123    1
    91   122   121    1
    92   135   136    1
    93   123   124    2
    94    62    61   ar
    95    62    64   ar
    96    61    63   ar
    97   140   139    1
    98   121   116   am
    99   139   136    1
   100   136   137    1
   101    64    65   ar
   102   112   111    1
   103    63    65   ar
   104   119   118    1
   105   117   116    2
   106    90    88    1
   107    89    88    1
   108   116   115    1
   109   104   103    1
   110    88    85    1
   111   137   138    2
   112    98    96    1
   113   111   110    1
   114   111   113    1
   115   110   107    1
   116   118   115    1
   117   118   120    1
   118   115   114    1
   119   114   108   am
   120    97    96    1
   121   105   103    1
   122    84    85    1
   123   107   108    1
   124   107   106    1
   125   103   100    1
   126   108   109    2
   127    96    95    1
   128    85    86    1
   129   155   154   ar
   130   155   153   ar
   131   100   101    1
   132   100    99    1
   133   101   102    2
   134   154   152   ar
   135    95    92    1
   136   153   151   ar
   137    86    87    2
   138    92    93    1
   139    92    91    1
   140   152   149   ar
   141   151   149   ar
   142   151   150   ar
   143    93    94    2
   144   149   147   ar
   145   150   148   ar
   146   147   148   ar
   147   147   146    1
   148   143   146    1
   149   143   144    1
   150   143   142    1
   151   144   145    2
