@<TRIPOS>MOLECULE
tmp/1okmA00.pdb
 139 136 0 0 0
SMALL
GASTEIGER

@<TRIPOS>ATOM
      1  N         -0.7590   -2.2170    6.2850 N.3    61  HIS61      -0.1241
      2  CA        -0.8630   -3.0340    7.4890 C.3    61  HIS61       0.1621
      3  C         -2.2900   -3.4530    7.8230 C.2    61  HIS61       0.2264
      4  O         -2.5090   -4.2680    8.7180 O.2    61  HIS61      -0.2867
      5  CB        -0.1790   -2.3680    8.6880 C.3    61  HIS61       0.0745
      6  CG        -0.5790   -0.9430    8.9140 C.ar   61  HIS61       0.0817
      7  ND1       -1.5990   -0.5850    9.7700 N.ar   61  HIS61      -0.2268
      8  CD2       -0.0640    0.2150    8.4380 C.ar   61  HIS61       0.1154
      9  CE1       -1.6910    0.7330    9.8150 C.ar   61  HIS61       0.1986
     10  NE2       -0.7710    1.2420    9.0160 N.ar   61  HIS61      -0.2212
     11  N        -12.6920    6.3430   11.3670 N.3    89  GLN89      -0.1245
     12  CA       -12.3810    5.1760   10.5490 C.3    89  GLN89       0.1566
     13  C        -12.5150    3.8890   11.3360 C.2    89  GLN89       0.2260
     14  O        -12.6250    3.9140   12.5630 O.2    89  GLN89      -0.2867
     15  CB       -10.9480    5.2770   10.0010 C.3    89  GLN89       0.0367
     16  CG        -9.8490    5.4030   11.0690 C.3    89  GLN89       0.0905
     17  CD        -9.0990    4.1030   11.3200 C.2    89  GLN89       0.2608
     18  OE1       -9.6520    3.0160   11.1790 O.2    89  GLN89      -0.2717
     19  NE2       -7.8280    4.2140   11.6790 N.am   89  GLN89      -0.0878
     20  N        -11.1230   -0.4090   11.1390 N.3    91  HIS91      -0.1241
     21  CA       -10.2630   -1.3980   10.5140 C.3    91  HIS91       0.1621
     22  C        -10.3970   -2.7040   11.2700 C.2    91  HIS91       0.2264
     23  O        -11.1110   -2.7840   12.2730 O.2    91  HIS91      -0.2867
     24  CB        -8.8000   -0.9340   10.5150 C.3    91  HIS91       0.0745
     25  CG        -8.2970   -0.5850   11.9000 C.ar   91  HIS91       0.0817
     26  ND1       -8.5200    0.6450   12.3580 N.ar   91  HIS91      -0.2268
     27  CD2       -7.6250   -1.2780   12.9380 C.ar   91  HIS91       0.1154
     28  CE1       -8.0330    0.7850   13.6270 C.ar   91  HIS91       0.1986
     29  NE2       -7.4810   -0.4030   13.9840 N.ar   91  HIS91      -0.2212
     30  N         -8.2010   -6.5270   12.4530 N.3    93  HIS93      -0.1241
     31  CA        -6.9370   -7.1940   12.7350 C.3    93  HIS93       0.1621
     32  C         -7.3640   -8.6470   12.6130 C.2    93  HIS93       0.2264
     33  O         -8.3770   -9.0370   13.1970 O.2    93  HIS93      -0.2867
     34  CB        -6.4660   -6.9100   14.1620 C.3    93  HIS93       0.0745
     35  CG        -6.1130   -5.4550   14.3770 C.ar   93  HIS93       0.0817
     36  ND1       -4.8690   -5.0550   14.1130 N.ar   93  HIS93      -0.2268
     37  CD2       -6.8010   -4.3200   14.8350 C.ar   93  HIS93       0.1154
     38  CE1       -4.7240   -3.7300   14.3820 C.ar   93  HIS93       0.1986
     39  NE2       -5.9170   -3.2760   14.8290 N.ar   93  HIS93      -0.2212
     40  N        -12.0610   -2.5540   14.9480 N.3   116  HIS116     -0.1241
     41  CA       -11.7840   -1.3600   15.7340 C.3   116  HIS116      0.1621
     42  C        -12.4480   -0.1420   15.1160 C.2   116  HIS116      0.2264
     43  O        -12.1450    0.2280   13.9790 O.2   116  HIS116     -0.2867
     44  CB       -10.2800   -1.1070   15.8300 C.3   116  HIS116      0.0745
     45  CG        -9.5750   -2.1050   16.7220 C.ar  116  HIS116      0.0817
     46  ND1       -8.2470   -2.1680   16.6720 N.ar  116  HIS116     -0.2268
     47  CD2       -9.9800   -3.0540   17.6900 C.ar  116  HIS116      0.1154
     48  CE1       -7.7780   -3.0990   17.5490 C.ar  116  HIS116      0.1986
     49  NE2       -8.8460   -3.6450   18.1740 N.ar  116  HIS116     -0.2212
     50  N        -12.6050    3.5450   15.4600 N.3   118  VAL118     -0.1245
     51  CA       -11.8500    4.6430   16.0540 C.3   118  VAL118      0.1561
     52  C        -12.6070    5.9700   16.1040 C.2   118  VAL118      0.2260
     53  O        -13.1160    6.4410   15.0850 O.2   118  VAL118     -0.2867
     54  CB       -10.5160    4.8380   15.2980 C.3   118  VAL118      0.0252
     55  CG1       -9.6040    5.7910   16.0540 C.3   118  VAL118      0.0019
     56  CG2       -9.8360    3.4910   15.0890 C.3   118  VAL118      0.0019
     57  N         -8.3480   15.3470   15.0590 N.3   127  PHE127     -0.1241
     58  CA        -7.7050   14.0850   15.4110 C.3   127  PHE127      0.1605
     59  C         -6.2780   14.3070   15.9010 C.2   127  PHE127      0.2264
     60  O         -5.8700   13.7460   16.9190 O.2   127  PHE127     -0.2867
     61  CB        -7.7050   13.1450   14.2030 C.3   127  PHE127      0.0534
     62  CG        -7.2230   11.7600   14.5110 C.ar  127  PHE127     -0.0203
     63  CD1       -8.0620   10.8430   15.1280 C.ar  127  PHE127     -0.0042
     64  CD2       -5.9260   11.3700   14.1850 C.ar  127  PHE127     -0.0042
     65  CE1       -7.6220    9.5550   15.4170 C.ar  127  PHE127     -0.0003
     66  CE2       -5.4750   10.0810   14.4720 C.ar  127  PHE127     -0.0003
     67  CZ        -6.3280    9.1740   15.0890 C.ar  127  PHE127     -0.0000
     68  N         -4.8840   13.0050   19.6730 N.3   131  VAL131     -0.1245
     69  CA        -3.8060   12.0530   19.9410 C.3   131  VAL131      0.1561
     70  C         -2.6920   12.6060   20.8280 C.2   131  VAL131      0.2260
     71  O         -1.6110   12.0310   20.9130 O.2   131  VAL131     -0.2867
     72  CB        -3.2020   11.4640   18.6360 C.3   131  VAL131      0.0252
     73  CG1       -4.2750   10.7240   17.8590 C.3   131  VAL131      0.0019
     74  CG2       -2.5700   12.5550   17.7870 C.3   131  VAL131      0.0019
     75  N        -11.8530    3.7960   21.2510 N.3   139  VAL139     -0.1245
     76  CA       -11.9570    2.7680   20.2250 C.3   139  VAL139      0.1561
     77  C        -12.9270    1.6940   20.7090 C.2   139  VAL139      0.2260
     78  O        -12.8450    1.2380   21.8500 O.2   139  VAL139     -0.2867
     79  CB       -10.5810    2.1360   19.8800 C.3   139  VAL139      0.0252
     80  CG1      -10.7280    1.1910   18.7000 C.3   139  VAL139      0.0019
     81  CG2       -9.5570    3.2180   19.5480 C.3   139  VAL139      0.0019
     82  N         -3.0100    2.9960   21.3900 N.3   194  LEU194     -0.1231
     83  CA        -3.1030    2.5100   20.0180 C.3   194  LEU194      0.1693
     84  C         -2.3330    1.2000   20.0310 C.2   194  LEU194      0.2593
     85  O         -1.3410    1.0850   20.7450 O.2   194  LEU194     -0.2718
     86  CB        -2.3970    3.4710   19.0600 C.3   194  LEU194      0.0284
     87  CG        -2.9060    4.9080   18.9650 C.3   194  LEU194      0.0019
     88  CD1       -2.0540    5.6730   17.9600 C.3   194  LEU194      0.0001
     89  CD2       -4.3740    4.9140   18.5510 C.3   194  LEU194      0.0001
     90  N         -2.7600    0.2290   19.2350 N.am  195  THR195     -0.1939
     91  CA        -2.0790   -1.0550   19.2000 C.3   195  THR195      0.2028
     92  C         -0.9740   -1.1180   18.1560 C.2   195  THR195      0.2643
     93  O         -0.2700   -2.1210   18.0550 O.2   195  THR195     -0.2714
     94  CB        -3.0680   -2.1930   18.9770 C.3   195  THR195      0.1808
     95  OG1       -3.7760   -1.9790   17.7470 O.3   195  THR195     -0.2208
     96  CG2       -4.0580   -2.2600   20.1350 C.3   195  THR195      0.0379
     97  N         -0.8490   -0.0650   17.3560 N.am  196  THR196     -0.1937
     98  CA         0.1900    0.0050   16.3340 C.3   196  THR196      0.2013
     99  C          0.9780    1.2850   16.5710 C.2   196  THR196      0.2484
    100  O          0.4790    2.2160   17.2150 O.2   196  THR196     -0.2729
    101  CB        -0.4100    0.0690   14.9090 C.3   196  THR196      0.1807
    102  OG1       -1.2630    1.2140   14.7970 O.3   196  THR196     -0.2208
    103  CG2       -1.2160   -1.1840   14.6030 C.3   196  THR196      0.0379
    104  N          2.2450    1.3290   16.1310 N.am  197  PRO197     -0.2715
    105  CA         3.0260    2.5540   16.3330 C.3   197  PRO197      0.1521
    106  C          2.2090    3.7160   15.7500 C.2   197  PRO197      0.2440
    107  O          1.5180    3.5360   14.7440 O.2   197  PRO197     -0.2731
    108  CB         4.2850    2.2760   15.5130 C.3   197  PRO197      0.0310
    109  CG         4.4860    0.8060   15.7230 C.3   197  PRO197      0.0237
    110  CD         3.0760    0.2640   15.5360 C.3   197  PRO197      0.0939
    111  N          2.3090    4.9260   16.3310 N.am  198  PRO198     -0.2727
    112  CA         3.1080    5.3670   17.4830 C.3   198  PRO198      0.1402
    113  C          2.7590    4.8600   18.8920 C.2   198  PRO198      0.2269
    114  O          3.4040    5.2600   19.8590 O.2   198  PRO198     -0.2865
    115  CB         3.0160    6.8890   17.3840 C.3   198  PRO198      0.0296
    116  CG         1.6460    7.0980   16.8330 C.3   198  PRO198      0.0237
    117  CD         1.5780    6.0620   15.7420 C.3   198  PRO198      0.0939
    118  N          0.4580    5.5950   20.9630 N.3   200  LEU200     -0.1245
    119  CA         0.1020    6.6890   21.8640 C.3   200  LEU200      0.1561
    120  C         -0.9420    6.2600   22.8960 C.2   200  LEU200      0.2260
    121  O         -1.9360    5.6130   22.5640 O.2   200  LEU200     -0.2867
    122  CB        -0.3990    7.8920   21.0570 C.3   200  LEU200      0.0270
    123  CG         0.5990    8.3590   19.9940 C.3   200  LEU200      0.0019
    124  CD1        0.0330    9.5240   19.2120 C.3   200  LEU200      0.0001
    125  CD2        1.9250    8.7320   20.6460 C.3   200  LEU200      0.0001
    126  N        -10.4680    2.3010   25.9240 N.3   205  TRP205     -0.1241
    127  CA       -10.9520    1.1230   25.2300 C.3   205  TRP205      0.1605
    128  C        -12.2970    0.6360   25.7220 C.2   205  TRP205      0.2264
    129  O        -12.5340    0.5300   26.9270 O.2   205  TRP205     -0.2867
    130  CB        -9.9310   -0.0080   25.3180 C.3   205  TRP205      0.0550
    131  CG        -8.8490    0.1010   24.3120 C.ar  205  TRP205      0.0003
    132  CD1       -7.6070    0.6370   24.4950 C.ar  205  TRP205      0.0946
    133  CD2       -8.9000   -0.3410   22.9510 C.ar  205  TRP205      0.0152
    134  NE1       -6.8840    0.5570   23.3310 N.ar  205  TRP205     -0.2442
    135  CE2       -7.6520   -0.0400   22.3660 C.ar  205  TRP205      0.0810
    136  CE3       -9.8830   -0.9650   22.1670 C.ar  205  TRP205      0.0012
    137  CZ2       -7.3540   -0.3380   21.0340 C.ar  205  TRP205      0.0191
    138  CZ3       -9.5870   -1.2640   20.8410 C.ar  205  TRP205      0.0001
    139  CH2       -8.3310   -0.9490   20.2890 C.ar  205  TRP205      0.0015
@<TRIPOS>BOND
     1     1     2    1
     2     2     3    1
     3     2     5    1
     4     3     4    2
     5     8     6   ar
     6     8    10   ar
     7     5     6    1
     8     6     7   ar
     9    10     9   ar
    10     7     9   ar
    11    15    12    1
    12    15    16    1
    13    21    24    1
    14    21    20    1
    15    21    22    1
    16    24    25    1
    17    12    13    1
    18    12    11    1
    19    16    17    1
    20    18    17    2
    21    22    23    2
    22    17    19   am
    23    13    14    2
    24    25    26   ar
    25    25    27   ar
    26    26    28   ar
    27    30    31    1
    28    32    31    1
    29    32    33    2
    30    31    34    1
    31    27    29   ar
    32    28    29   ar
    33    43    42    2
    34    36    35   ar
    35    36    38   ar
    36    34    35    1
    37    64    66   ar
    38    64    62   ar
    39    61    62    1
    40    61    58    1
    41    35    37   ar
    42    38    39   ar
    43    66    67   ar
    44    62    63   ar
    45   103   101    1
    46   107   106    2
    47   102   101    1
    48    39    37   ar
    49   101    98    1
    50    40    41    1
    51    57    58    1
    52    53    52    2
    53    56    54    1
    54    67    65   ar
    55    42    41    1
    56    63    65   ar
    57    54    55    1
    58    54    51    1
    59    58    59    1
    60    50    51    1
    61   108   109    1
    62   108   105    1
    63   110   109    1
    64   110   104    1
    65    41    44    1
    66   117   111    1
    67   117   116    1
    68   106   111   am
    69   106   105    1
    70    44    45    1
    71    59    60    2
    72    51    52    1
    73   104   105    1
    74   104    99   am
    75   111   112    1
    76    98    99    1
    77    98    97    1
    78    99   100    2
    79    46    45   ar
    80    46    48   ar
    81    45    47   ar
    82   116   115    1
    83    97    92   am
    84   115   112    1
    85   112   113    1
    86    48    49   ar
    87    47    49   ar
    88    95    94    1
    89    74    72    1
    90    73    72    1
    91    88    87    1
    92    93    92    2
    93    92    91    1
    94    89    87    1
    95    72    69    1
    96    80    79    1
    97   113   114    2
    98    87    86    1
    99    94    91    1
   100    94    96    1
   101    86    83    1
   102    91    90    1
   103   124   123    1
   104    90    84   am
   105    81    79    1
   106    68    69    1
   107    79    76    1
   108    69    70    1
   109   123   125    1
   110   123   122    1
   111    83    84    1
   112    83    82    1
   113    84    85    2
   114    76    77    1
   115    76    75    1
   116   139   138   ar
   117   139   137   ar
   118    77    78    2
   119    70    71    2
   120   138   136   ar
   121   118   119    1
   122   137   135   ar
   123   122   119    1
   124   119   120    1
   125   136   133   ar
   126   135   133   ar
   127   135   134   ar
   128   121   120    2
   129   133   131   ar
   130   134   132   ar
   131   131   132   ar
   132   131   130    1
   133   127   130    1
   134   127   128    1
   135   127   126    1
   136   128   129    2
