@<TRIPOS>MOLECULE
tmp/1oknA00.pdb
 157 153 0 0 0
SMALL
GASTEIGER

@<TRIPOS>ATOM
      1  N          9.7720    3.2730   19.1140 N.3    16  PHE16      -0.1241
      2  CA         8.7010    3.8750   19.9150 C.3    16  PHE16       0.1605
      3  C          8.7880    3.3360   21.3380 C.2    16  PHE16       0.2264
      4  O          8.1070    2.3750   21.7030 O.2    16  PHE16      -0.2867
      5  CB         7.3380    3.5730   19.2730 C.3    16  PHE16       0.0534
      6  CG         7.2750    3.9330   17.8090 C.ar   16  PHE16      -0.0203
      7  CD1        7.0490    5.2520   17.4110 C.ar   16  PHE16      -0.0042
      8  CD2        7.5150    2.9700   16.8310 C.ar   16  PHE16      -0.0042
      9  CE1        7.0690    5.6120   16.0580 C.ar   16  PHE16      -0.0003
     10  CE2        7.5400    3.3180   15.4680 C.ar   16  PHE16      -0.0003
     11  CZ         7.3170    4.6440   15.0830 C.ar   16  PHE16      -0.0000
     12  N        -12.6980    6.3380   11.3980 N.3    88  GLN88      -0.1245
     13  CA       -12.4250    5.1750   10.5530 C.3    88  GLN88       0.1566
     14  C        -12.5480    3.8730   11.3340 C.2    88  GLN88       0.2260
     15  O        -12.7260    3.8860   12.5610 O.2    88  GLN88      -0.2867
     16  CB       -11.0170    5.2660    9.9300 C.3    88  GLN88       0.0367
     17  CG        -9.8550    5.4660   10.9360 C.3    88  GLN88       0.0905
     18  CD        -9.0810    4.1920   11.2530 C.2    88  GLN88       0.2608
     19  OE1       -9.5810    3.0870   11.0840 O.2    88  GLN88      -0.2717
     20  NE2       -7.8470    4.3490   11.7050 N.am   88  GLN88      -0.0878
     21  N        -11.0740   -0.4500   11.1450 N.3    90  HIS90      -0.1241
     22  CA       -10.2100   -1.4610   10.5530 C.3    90  HIS90       0.1621
     23  C        -10.3640   -2.7520   11.3330 C.2    90  HIS90       0.2264
     24  O        -11.0950   -2.8060   12.3270 O.2    90  HIS90      -0.2867
     25  CB        -8.7410   -1.0180   10.5990 C.3    90  HIS90       0.0745
     26  CG        -8.2850   -0.6210   11.9980 C.ar   90  HIS90       0.0817
     27  ND1       -8.4490    0.6470   12.3780 N.ar   90  HIS90      -0.2268
     28  CD2       -7.7530   -1.2970   13.1180 C.ar   90  HIS90       0.1154
     29  CE1       -8.0600    0.8190   13.6690 C.ar   90  HIS90       0.1986
     30  NE2       -7.6300   -0.3790   14.1290 N.ar   90  HIS90      -0.2212
     31  N         -8.1440   -6.6670   12.4480 N.3    92  HIS92      -0.1241
     32  CA        -6.8850   -7.3590   12.6930 C.3    92  HIS92       0.1621
     33  C         -7.3680   -8.7990   12.6240 C.2    92  HIS92       0.2264
     34  O         -8.3900   -9.1300   13.2360 O.2    92  HIS92      -0.2867
     35  CB        -6.3460   -7.0780   14.0970 C.3    92  HIS92       0.0745
     36  CG        -6.1560   -5.6080   14.3660 C.ar   92  HIS92       0.0817
     37  ND1       -4.9480   -5.0750   14.1980 N.ar   92  HIS92      -0.2268
     38  CD2       -7.0010   -4.5570   14.8210 C.ar   92  HIS92       0.1154
     39  CE1       -4.9650   -3.7400   14.5170 C.ar   92  HIS92       0.1986
     40  NE2       -6.2350   -3.4240   14.9020 N.ar   92  HIS92      -0.2212
     41  N        -12.1030   -2.5480   15.0080 N.3   115  HIS115     -0.1241
     42  CA       -11.8280   -1.3210   15.7450 C.3   115  HIS115      0.1621
     43  C        -12.4820   -0.1080   15.0820 C.2   115  HIS115      0.2264
     44  O        -12.0930    0.3210   13.9920 O.2   115  HIS115     -0.2867
     45  CB       -10.3240   -1.0760   15.8750 C.3   115  HIS115      0.0745
     46  CG        -9.6460   -2.0760   16.7830 C.ar  115  HIS115      0.0817
     47  ND1       -8.3310   -2.2660   16.6530 N.ar  115  HIS115     -0.2268
     48  CD2      -10.0580   -2.9090   17.8460 C.ar  115  HIS115      0.1154
     49  CE1       -7.8860   -3.1710   17.5720 C.ar  115  HIS115      0.1986
     50  NE2       -8.9490   -3.5650   18.3050 N.ar  115  HIS115     -0.2212
     51  N        -12.8000    3.5640   15.3360 N.3   117  VAL117     -0.1245
     52  CA       -12.0630    4.6580   15.9620 C.3   117  VAL117      0.1561
     53  C        -12.8300    5.9740   16.0390 C.2   117  VAL117      0.2260
     54  O        -13.3860    6.4250   15.0330 O.2   117  VAL117     -0.2867
     55  CB       -10.6850    4.8730   15.2480 C.3   117  VAL117      0.0252
     56  CG1       -9.8180    5.8870   16.0030 C.3   117  VAL117      0.0019
     57  CG2       -9.9400    3.5550   15.1600 C.3   117  VAL117      0.0019
     58  N         -8.4250   15.0800   15.0750 N.3   126  PHE126     -0.1227
     59  CA        -7.7630   13.8310   15.4280 C.3   126  PHE126      0.1736
     60  C         -6.3320   14.0640   15.9210 C.2   126  PHE126      0.2596
     61  O         -5.9100   13.4850   16.9170 O.2   126  PHE126     -0.2718
     62  CB        -7.7680   12.8650   14.2300 C.3   126  PHE126      0.0547
     63  CG        -7.1900   11.5180   14.5480 C.ar  126  PHE126     -0.0202
     64  CD1       -7.9900   10.5200   15.0960 C.ar  126  PHE126     -0.0042
     65  CD2       -5.8260   11.2750   14.3840 C.ar  126  PHE126     -0.0042
     66  CE1       -7.4470    9.3000   15.4870 C.ar  126  PHE126     -0.0003
     67  CE2       -5.2600   10.0570   14.7710 C.ar  126  PHE126     -0.0003
     68  CZ        -6.0770    9.0660   15.3280 C.ar  126  PHE126     -0.0000
     69  N         -5.5940   14.9120   15.2100 N.am  127  GLY127     -0.1957
     70  CA        -4.2170   15.2120   15.5740 C.3   127  GLY127      0.1869
     71  C         -4.0520   15.8470   16.9420 C.2   127  GLY127      0.2309
     72  O         -2.9950   15.7240   17.5600 O.2   127  GLY127     -0.2863
     73  N         -4.8810   13.0270   19.8220 N.3   130  VAL130     -0.1245
     74  CA        -3.7510   12.1650   20.1540 C.3   130  VAL130      0.1561
     75  C         -2.6650   12.8640   20.9800 C.2   130  VAL130      0.2260
     76  O         -1.5510   12.3670   21.1180 O.2   130  VAL130     -0.2867
     77  CB        -3.1190   11.5090   18.9090 C.3   130  VAL130      0.0252
     78  CG1       -4.1440   10.6600   18.1930 C.3   130  VAL130      0.0019
     79  CG2       -2.5050   12.5550   17.9940 C.3   130  VAL130      0.0019
     80  N        -12.0890    3.8600   21.2450 N.3   138  VAL138     -0.1245
     81  CA       -12.1810    2.8300   20.2220 C.3   138  VAL138      0.1561
     82  C        -13.1660    1.7750   20.7130 C.2   138  VAL138      0.2260
     83  O        -13.1080    1.3450   21.8690 O.2   138  VAL138     -0.2867
     84  CB       -10.7950    2.1820   19.9530 C.3   138  VAL138      0.0252
     85  CG1      -10.8640    1.2640   18.7450 C.3   138  VAL138      0.0019
     86  CG2       -9.7650    3.2560   19.7170 C.3   138  VAL138      0.0019
     87  N         -4.0790    2.2280   24.8910 N.3   192  SER192     -0.1202
     88  CA        -3.3880    2.9140   23.7820 C.3   192  SER192      0.2020
     89  C         -3.7140    2.3980   22.3590 C.2   192  SER192      0.2619
     90  O         -4.5630    1.5220   22.1700 O.2   192  SER192     -0.2717
     91  CB        -1.8720    2.7810   23.9880 C.3   192  SER192      0.2103
     92  OG        -1.4560    1.4230   23.8570 O.3   192  SER192     -0.2182
     93  N         -3.0430    2.9750   21.3630 N.am  193  LEU193     -0.1965
     94  CA        -3.1840    2.5490   19.9740 C.3   193  LEU193      0.1728
     95  C         -2.4070    1.2440   19.9660 C.2   193  LEU193      0.2617
     96  O         -1.4230    1.1170   20.6970 O.2   193  LEU193     -0.2715
     97  CB        -2.4910    3.5310   19.0290 C.3   193  LEU193      0.0311
     98  CG        -2.9470    4.9860   19.0140 C.3   193  LEU193      0.0022
     99  CD1       -2.0460    5.8000   18.1030 C.3   193  LEU193      0.0001
    100  CD2       -4.3930    5.0620   18.5610 C.3   193  LEU193      0.0001
    101  N         -2.8320    0.2740   19.1630 N.am  194  THR194     -0.1937
    102  CA        -2.1270   -0.9980   19.1320 C.3   194  THR194      0.2028
    103  C         -1.0580   -1.0790   18.0440 C.2   194  THR194      0.2643
    104  O         -0.4210   -2.1170   17.8660 O.2   194  THR194     -0.2714
    105  CB        -3.0940   -2.1860   19.0420 C.3   194  THR194      0.1808
    106  OG1       -3.8800   -2.0920   17.8510 O.3   194  THR194     -0.2208
    107  CG2       -4.0350   -2.1870   20.2480 C.3   194  THR194      0.0379
    108  N         -0.8720    0.0200   17.3170 N.am  195  THR195     -0.1937
    109  CA         0.1430    0.1220   16.2690 C.3   195  THR195      0.2013
    110  C          0.8990    1.4330   16.4990 C.2   195  THR195      0.2484
    111  O          0.3890    2.3350   17.1790 O.2   195  THR195     -0.2729
    112  CB        -0.4900    0.1590   14.8570 C.3   195  THR195      0.1807
    113  OG1       -1.6600    0.9880   14.8720 O.3   195  THR195     -0.2208
    114  CG2       -0.8680   -1.2270   14.4010 C.3   195  THR195      0.0379
    115  N          2.1720    1.5120   16.0590 N.am  196  PRO196     -0.2715
    116  CA         2.8770    2.7800   16.2710 C.3   196  PRO196      0.1521
    117  C          2.0250    3.9360   15.7150 C.2   196  PRO196      0.2440
    118  O          1.2680    3.7450   14.7500 O.2   196  PRO196     -0.2731
    119  CB         4.1680    2.5670   15.4790 C.3   196  PRO196      0.0310
    120  CG         4.4660    1.1060   15.7700 C.3   196  PRO196      0.0237
    121  CD         3.0980    0.4670   15.5670 C.3   196  PRO196      0.0939
    122  N          2.1270    5.1470   16.3080 N.am  197  PRO197     -0.2727
    123  CA         2.9630    5.5550   17.4470 C.3   197  PRO197      0.1402
    124  C          2.6070    5.0670   18.8650 C.2   197  PRO197      0.2269
    125  O          3.2300    5.4990   19.8290 O.2   197  PRO197     -0.2865
    126  CB         2.9670    7.0800   17.3300 C.3   197  PRO197      0.0296
    127  CG         1.6210    7.3770   16.7970 C.3   197  PRO197      0.0237
    128  CD         1.4120    6.3100   15.7470 C.3   197  PRO197      0.0939
    129  N          0.4570    5.7920   21.0240 N.3   199  LEU199     -0.1245
    130  CA         0.1550    6.8500   21.9860 C.3   199  LEU199      0.1561
    131  C         -0.8990    6.4060   23.0090 C.2   199  LEU199      0.2260
    132  O         -1.8730    5.7170   22.6690 O.2   199  LEU199     -0.2867
    133  CB        -0.3040    8.1040   21.2260 C.3   199  LEU199      0.0270
    134  CG         0.6050    8.4840   20.0390 C.3   199  LEU199      0.0019
    135  CD1        0.0640    9.6970   19.2970 C.3   199  LEU199      0.0001
    136  CD2        2.0360    8.7280   20.5200 C.3   199  LEU199      0.0001
    137  N         -6.3080    6.3560   24.6100 N.3   202  VAL202     -0.1245
    138  CA        -7.5420    5.6410   24.3460 C.3   202  VAL202      0.1561
    139  C         -8.3320    5.0830   25.5130 C.2   202  VAL202      0.2260
    140  O         -7.7860    4.4530   26.4110 O.2   202  VAL202     -0.2867
    141  CB        -7.2710    4.4700   23.3780 C.3   202  VAL202      0.0252
    142  CG1       -8.5750    3.8390   22.9230 C.3   202  VAL202      0.0019
    143  CG2       -6.4210    4.9460   22.1930 C.3   202  VAL202      0.0019
    144  N        -10.6400    2.4010   25.9280 N.3   204  TRP204     -0.1241
    145  CA       -11.1340    1.2190   25.2410 C.3   204  TRP204      0.1605
    146  C        -12.4760    0.7300   25.7570 C.2   204  TRP204      0.2264
    147  O        -12.7070    0.6740   26.9640 O.2   204  TRP204     -0.2867
    148  CB       -10.1100    0.0840   25.3270 C.3   204  TRP204      0.0550
    149  CG        -9.0220    0.1790   24.2990 C.ar  204  TRP204      0.0003
    150  CD1       -7.7670    0.7030   24.4700 C.ar  204  TRP204      0.0946
    151  CD2       -9.0740   -0.3040   22.9500 C.ar  204  TRP204      0.0152
    152  NE1       -7.0330    0.5640   23.3120 N.ar  204  TRP204     -0.2442
    153  CE2       -7.8080   -0.0530   22.3650 C.ar  204  TRP204      0.0810
    154  CE3      -10.0650   -0.9310   22.1800 C.ar  204  TRP204      0.0012
    155  CZ2       -7.5060   -0.4090   21.0470 C.ar  204  TRP204      0.0191
    156  CZ3       -9.7680   -1.2850   20.8760 C.ar  204  TRP204      0.0001
    157  CH2       -8.4940   -1.0240   20.3210 C.ar  204  TRP204      0.0015
@<TRIPOS>BOND
     1    16    13    1
     2    16    17    1
     3    13    14    1
     4    13    12    1
     5    22    25    1
     6    22    21    1
     7    22    23    1
     8    25    26    1
     9    17    18    1
    10    19    18    2
    11    18    20   am
    12    23    24    2
    13    14    15    2
    14    26    27   ar
    15    26    28   ar
    16    27    29   ar
    17    31    32    1
    18    33    32    1
    19    33    34    2
    20    32    35    1
    21    28    30   ar
    22    29    30   ar
    23    44    43    2
    24    35    36    1
    25    37    36   ar
    26    37    39   ar
    27    62    63    1
    28    62    59    1
    29    36    38   ar
    30    65    63   ar
    31    65    67   ar
    32   114   112    1
    33    39    40   ar
    34    63    64   ar
    35   118   117    2
    36    67    68   ar
    37    38    40   ar
    38   112   113    1
    39   112   109    1
    40    41    42    1
    41    54    53    2
    42    58    59    1
    43    43    42    1
    44    11    10   ar
    45    11     9   ar
    46    64    66   ar
    47    57    55    1
    48    69    70    1
    49    69    60   am
    50    55    52    1
    51    55    56    1
    52    68    66   ar
    53    51    52    1
    54    59    60    1
    55    10     8   ar
    56   119   120    1
    57   119   116    1
    58   121   120    1
    59   121   115    1
    60    70    71    1
    61   117   116    1
    62   117   122   am
    63    42    45    1
    64   128   122    1
    65   128   127    1
    66    45    46    1
    67    60    61    2
    68    52    53    1
    69     9     7   ar
    70   115   116    1
    71   115   110   am
    72   109   110    1
    73   109   108    1
    74   122   123    1
    75   110   111    2
    76    47    46   ar
    77    47    49   ar
    78    46    48   ar
    79   127   126    1
    80     8     6   ar
    81    71    72    2
    82   108   103   am
    83   126   123    1
    84     7     6   ar
    85   123   124    1
    86    49    50   ar
    87     6     5    1
    88    48    50   ar
    89   106   105    1
    90   104   103    2
    91    79    77    1
    92   103   102    1
    93    99    98    1
    94    78    77    1
    95   100    98    1
    96    85    84    1
    97   124   125    2
    98    77    74    1
    99    98    97    1
   100    97    94    1
   101   105   102    1
   102   105   107    1
   103     1     2    1
   104   102   101    1
   105   101    95   am
   106     5     2    1
   107   135   134    1
   108    86    84    1
   109    73    74    1
   110     2     3    1
   111    84    81    1
   112    95    94    1
   113    95    96    2
   114    94    93    1
   115   134   136    1
   116   134   133    1
   117    74    75    1
   118    81    82    1
   119    81    80    1
   120   157   156   ar
   121   157   155   ar
   122    82    83    2
   123   156   154   ar
   124    75    76    2
   125   129   130    1
   126   155   153   ar
   127   133   130    1
   128     3     4    2
   129    93    89   am
   130   130   131    1
   131    90    89    2
   132   154   151   ar
   133   143   141    1
   134    89    88    1
   135   153   151   ar
   136   153   152   ar
   137   132   131    2
   138   142   141    1
   139   151   149   ar
   140   152   150   ar
   141   141   138    1
   142    88    91    1
   143    88    87    1
   144    92    91    1
   145   149   150   ar
   146   149   148    1
   147   138   137    1
   148   138   139    1
   149   145   148    1
   150   145   146    1
   151   145   144    1
   152   139   140    2
   153   146   147    2
