@<TRIPOS>MOLECULE
tmp/1okwB00.pdb
 133 129 0 0 0
SMALL
GASTEIGER

@<TRIPOS>ATOM
      1  N         46.9020   33.2140   -2.7590 N.3    36  MET36      -0.1245
      2  CA        45.7520   32.5700   -2.1150 C.3    36  MET36       0.1570
      3  C         44.4570   33.0910   -2.7300 C.2    36  MET36       0.2261
      4  O         43.5640   32.2990   -3.0110 O.2    36  MET36      -0.2867
      5  CB        45.7110   32.8180   -0.6000 C.3    36  MET36       0.0387
      6  CG        46.7680   32.0950    0.2410 C.3    36  MET36       0.0595
      7  SD        46.9620   32.7810    1.9080 S.3    36  MET36      -0.1393
      8  CE        48.7340   32.5530    2.2600 C.3    36  MET36       0.0692
      9  N         44.0020   31.1410   -5.8000 N.3    39  ILE39      -0.1231
     10  CA        43.4700   29.7980   -5.5540 C.3    39  ILE39       0.1692
     11  C         41.9990   29.8710   -5.2280 C.2    39  ILE39       0.2591
     12  O         41.2120   29.0600   -5.6910 O.2    39  ILE39      -0.2718
     13  CB        44.1990   29.1020   -4.4160 C.3    39  ILE39       0.0266
     14  CG1       45.6310   28.7580   -4.8390 C.3    39  ILE39       0.0019
     15  CG2       43.4370   27.8280   -4.0070 C.3    39  ILE39       0.0020
     16  CD1       46.6320   28.6550   -3.6700 C.3    39  ILE39       0.0001
     17  N         41.6070   30.8620   -4.4350 N.am   40  LEU40      -0.1980
     18  CA        40.1950   31.0060   -4.0430 C.3    40  LEU40       0.1596
     19  C         39.2670   31.2490   -5.2240 C.2    40  LEU40       0.2287
     20  O         38.2480   30.5950   -5.3300 O.2    40  LEU40      -0.2864
     21  CB        40.0030   32.1170   -3.0070 C.3    40  LEU40       0.0297
     22  CG        38.5390   32.3120   -2.5860 C.3    40  LEU40       0.0022
     23  CD1       38.0750   31.2170   -1.6580 C.3    40  LEU40       0.0001
     24  CD2       38.3740   33.6590   -1.9080 C.3    40  LEU40       0.0001
     25  N         39.8160   30.7280   -8.4020 N.3    42  ASP42      -0.1225
     26  CA        39.8900   29.6690   -9.4050 C.3    42  ASP42       0.1805
     27  C         38.9110   28.6130   -8.9540 C.2    42  ASP42       0.2597
     28  O         38.1320   28.1070   -9.7700 O.2    42  ASP42      -0.2718
     29  CB        41.3010   29.0810   -9.5610 C.3    42  ASP42       0.1424
     30  CG        41.3240   27.8270  -10.4410 C.2    42  ASP42       0.3668
     31  OD1       41.4620   27.9700  -11.6740 O.co2  42  ASP42      -0.2456
     32  OD2       41.1400   26.6600  -10.0150 O.co2  42  ASP42      -0.2456
     33  N         38.8950   28.3470   -7.6440 N.am   43  TRP43      -0.1976
     34  CA        37.9570   27.3690   -7.0580 C.3    43  TRP43       0.1640
     35  C         36.5100   27.8040   -7.2840 C.2    43  TRP43       0.2290
     36  O         35.6180   26.9980   -7.5790 O.2    43  TRP43      -0.2864
     37  CB        38.2310   27.1940   -5.5500 C.3    43  TRP43       0.0576
     38  CG        37.1870   26.3980   -4.8100 C.ar   43  TRP43       0.0006
     39  CD1       36.9210   25.0820   -4.9580 C.ar   43  TRP43       0.0946
     40  CD2       36.2920   26.8750   -3.7920 C.ar   43  TRP43       0.0152
     41  NE1       35.8710   24.7130   -4.1540 N.ar   43  TRP43      -0.2442
     42  CE2       35.4750   25.7940   -3.4160 C.ar   43  TRP43       0.0810
     43  CE3       36.1180   28.0990   -3.1410 C.ar   43  TRP43       0.0012
     44  CZ2       34.4590   25.9110   -2.4630 C.ar   43  TRP43       0.0191
     45  CZ3       35.1570   28.1990   -2.1680 C.ar   43  TRP43       0.0001
     46  CH2       34.3050   27.1260   -1.8630 C.ar   43  TRP43       0.0015
     47  N         35.1940   26.6440  -10.5240 N.3    46  GLU46      -0.1245
     48  CA        34.7400   25.2570  -10.4870 C.3    46  GLU46       0.1567
     49  C         33.3690   25.0980   -9.8370 C.2    46  GLU46       0.2260
     50  O         32.4970   24.4070  -10.3670 O.2    46  GLU46      -0.2867
     51  CB        35.7590   24.3890   -9.7650 C.3    46  GLU46       0.0388
     52  CG        36.7930   23.7610  -10.6880 C.3    46  GLU46       0.1160
     53  CD        37.9010   23.0350   -9.9360 C.2    46  GLU46       0.3649
     54  OE1       38.0540   21.8110  -10.1670 O.co2  46  GLU46      -0.2457
     55  OE2       38.6330   23.6850   -9.1420 O.co2  46  GLU46      -0.2457
     56  N         44.1550   32.9810    6.9770 N.3    76  ARG76      -0.1245
     57  CA        44.1550   32.0010    5.9050 C.3    76  ARG76       0.1563
     58  C         42.9140   31.1300    6.0370 C.2    76  ARG76       0.2260
     59  O         42.2580   30.7600    5.0480 O.2    76  ARG76      -0.2867
     60  CB        45.3520   31.0560    6.0420 C.3    76  ARG76       0.0307
     61  CG        46.7230   31.6610    5.9960 C.3    76  ARG76       0.0489
     62  CD        47.7240   30.8770    6.7860 C.3    76  ARG76       0.2205
     63  NE        48.9680   30.6880    6.0470 N.pl3  76  ARG76      -0.0865
     64  CZ        50.0230   31.4800    6.1190 C.cat  76  ARG76       0.5346
     65  NH1       50.0240   32.5480    6.8960 N.pl3  76  ARG76       0.1354
     66  NH2       51.0930   31.2060    5.3980 N.pl3  76  ARG76       0.1354
     67  N         39.4850   32.4990    4.8180 N.3    79  LEU79      -0.1231
     68  CA        39.3220   33.0100    3.4580 C.3    79  LEU79       0.1693
     69  C         38.2860   32.2350    2.6760 C.2    79  LEU79       0.2591
     70  O         37.3870   32.8090    2.0580 O.2    79  LEU79      -0.2718
     71  CB        40.6360   32.9770    2.6800 C.3    79  LEU79       0.0284
     72  CG        40.6630   33.7310    1.3490 C.3    79  LEU79       0.0019
     73  CD1       40.6280   35.2120    1.5500 C.3    79  LEU79       0.0001
     74  CD2       41.9000   33.3650    0.5630 C.3    79  LEU79       0.0001
     75  N         38.3110   30.9250    2.8000 N.am   80  GLN80      -0.1979
     76  CA        37.3660   30.1530    2.0110 C.3    80  GLN80       0.1601
     77  C         35.9260   30.3960    2.4670 C.2    80  GLN80       0.2287
     78  O         34.9550   30.0650    1.7850 O.2    80  GLN80      -0.2864
     79  CB        37.7600   28.6790    2.0380 C.3    80  GLN80       0.0394
     80  CG        37.1320   27.8410    0.9480 C.3    80  GLN80       0.0908
     81  CD        37.3370   26.3420    1.1540 C.2    80  GLN80       0.2608
     82  OE1       38.0320   25.9400    2.0770 O.2    80  GLN80      -0.2717
     83  NE2       36.6920   25.5230    0.3380 N.am   80  GLN80      -0.0878
     84  N         28.5560   21.8550    1.6500 N.3   106  TYR106     -0.1227
     85  CA        29.1040   20.6410    1.0310 C.3   106  TYR106      0.1736
     86  C         30.3500   20.9180    0.1860 C.2   106  TYR106      0.2595
     87  O         31.3850   20.2580    0.3720 O.2   106  TYR106     -0.2718
     88  CB        28.0520   19.9070    0.1860 C.3   106  TYR106      0.0548
     89  CG        28.5880   18.6460   -0.4920 C.ar  106  TYR106     -0.0200
     90  CD1       28.9230   17.5110    0.2540 C.ar  106  TYR106     -0.0009
     91  CD2       28.8000   18.5940   -1.8730 C.ar  106  TYR106     -0.0009
     92  CE1       29.4500   16.3660   -0.3550 C.ar  106  TYR106      0.0417
     93  CE2       29.3270   17.4530   -2.4840 C.ar  106  TYR106      0.0417
     94  CZ        29.6600   16.3460   -1.7210 C.ar  106  TYR106      0.1957
     95  OH        30.2100   15.2240   -2.3090 O.3   106  TYR106     -0.2866
     96  N         30.2790   21.9460   -0.6650 N.am  107  ILE107     -0.1966
     97  CA        31.3780   22.2760   -1.5700 C.3   107  ILE107      0.1727
     98  C         32.6630   22.6500   -0.8470 C.2   107  ILE107      0.2617
     99  O         33.7160   22.7220   -1.4640 O.2   107  ILE107     -0.2715
    100  CB        31.0050   23.3460   -2.6700 C.3   107  ILE107      0.0290
    101  CG1       30.2790   24.5830   -2.1310 C.3   107  ILE107      0.0022
    102  CG2       30.1120   22.7270   -3.7210 C.3   107  ILE107      0.0023
    103  CD1       31.0610   25.8910   -2.1650 C.3   107  ILE107      0.0001
    104  N         32.6150   22.8040    0.4660 N.am  108  THR108     -0.1937
    105  CA        33.8560   22.9370    1.2310 C.3   108  THR108      0.2028
    106  C         34.3190   21.6510    1.9060 C.2   108  THR108      0.2642
    107  O         35.2930   21.6790    2.6470 O.2   108  THR108     -0.2714
    108  CB        33.7240   24.0240    2.3270 C.3   108  THR108      0.1808
    109  OG1       32.7380   23.6240    3.2950 O.3   108  THR108     -0.2208
    110  CG2       33.1980   25.3190    1.7330 C.3   108  THR108      0.0379
    111  N         33.5960   20.5470    1.7400 N.am  109  ASP109     -0.1957
    112  CA        33.8750   19.3350    2.5320 C.3   109  ASP109      0.1840
    113  C         33.6500   19.6050    4.0200 C.2   109  ASP109      0.2622
    114  O         34.5840   19.5520    4.8280 O.2   109  ASP109     -0.2715
    115  CB        35.3330   18.8820    2.3450 C.3   109  ASP109      0.1450
    116  CG        35.4730   17.5680    1.5710 C.2   109  ASP109      0.3671
    117  OD1       35.5410   16.5080    2.2420 O.co2 109  ASP109     -0.2456
    118  OD2       35.6560   17.5200    0.3210 O.co2 109  ASP109     -0.2456
    119  N         32.4160   19.9630    4.3550 N.am  110  ASP110     -0.1957
    120  CA        32.0200   20.2090    5.7310 C.3   110  ASP110      0.1840
    121  C         33.1530   20.8040    6.5760 C.2   110  ASP110      0.2622
    122  O         33.3280   20.4470    7.7460 O.2   110  ASP110     -0.2715
    123  CB        31.4670   18.9140    6.3430 C.3   110  ASP110      0.1450
    124  CG        30.1960   18.4230    5.6430 C.2   110  ASP110      0.3671
    125  OD1       29.3180   19.2380    5.3040 O.co2 110  ASP110     -0.2456
    126  OD2       29.9590   17.2290    5.3770 O.co2 110  ASP110     -0.2456
    127  N         33.8710   21.7810    6.0340 N.am  111  THR111     -0.1951
    128  CA        34.9380   22.4270    6.8070 C.3   111  THR111      0.1897
    129  C         34.4680   23.6990    7.5140 C.2   111  THR111      0.2313
    130  O         35.2240   24.3760    8.2100 O.2   111  THR111     -0.2863
    131  CB        36.1440   22.7200    5.8820 C.3   111  THR111      0.1794
    132  OG1       36.6700   24.0300    6.1090 O.3   111  THR111     -0.2208
    133  CG2       35.7400   22.7060    4.4470 C.3   111  THR111      0.0378
@<TRIPOS>BOND
     1    31    30   ar
     2    52    53    1
     3    52    51    1
     4    47    48    1
     5    48    49    1
     6    48    51    1
     7    30    32   ar
     8    30    29    1
     9    50    49    2
    10    54    53   ar
    11    53    55   ar
    12    28    27    2
    13    29    26    1
    14    26    27    1
    15    26    25    1
    16    27    33   am
    17    33    34    1
    18    36    35    2
    19    35    34    1
    20    34    37    1
    21     9    10    1
    22    12    11    2
    23    10    11    1
    24    10    13    1
    25    37    38    1
    26    20    19    2
    27    11    17   am
    28    19    18    1
    29    39    38   ar
    30    39    41   ar
    31    14    13    1
    32    14    16    1
    33    38    40   ar
    34    17    18    1
    35    13    15    1
    36    41    42   ar
    37    18    21    1
    38    40    42   ar
    39    40    43   ar
    40   102   100    1
    41    42    44   ar
    42    43    45   ar
    43     4     3    2
    44    21    22    1
    45     1     2    1
    46     3     2    1
    47   100   101    1
    48   100    97    1
    49    22    24    1
    50    22    23    1
    51    93    91   ar
    52    93    94   ar
    53    44    46   ar
    54    95    94    1
    55    45    46   ar
    56   103   101    1
    57     2     5    1
    58    91    89   ar
    59    94    92   ar
    60    97    98    1
    61    97    96    1
    62    99    98    2
    63    98   104   am
    64    96    86   am
    65     5     6    1
    66    89    88    1
    67    89    90   ar
    68    92    90   ar
    69    86    87    2
    70    86    85    1
    71    88    85    1
    72     6     7    1
    73   118   116   ar
    74    83    81   am
    75   104   105    1
    76    74    72    1
    77    80    81    1
    78    80    79    1
    79    85    84    1
    80    81    82    2
    81   105   106    1
    82   105   108    1
    83    72    73    1
    84    72    71    1
    85   116   117   ar
    86   116   115    1
    87   110   108    1
    88   111   106   am
    89   111   112    1
    90    78    77    2
    91   106   107    2
    92     7     8    1
    93    76    79    1
    94    76    77    1
    95    76    75    1
    96    70    69    2
    97   108   109    1
    98   115   112    1
    99   112   113    1
   100    69    75   am
   101    69    68    1
   102    71    68    1
   103    68    67    1
   104   113   119   am
   105   113   114    2
   106   119   120    1
   107   133   131    1
   108    59    58    2
   109   125   124   ar
   110   126   124   ar
   111    66    64    1
   112   124   123    1
   113   120   123    1
   114   120   121    1
   115   131   132    1
   116   131   128    1
   117    57    58    1
   118    57    60    1
   119    57    56    1
   120    61    60    1
   121    61    62    1
   122   127   121   am
   123   127   128    1
   124    63    64    2
   125    63    62    1
   126    64    65    1
   127   121   122    2
   128   128   129    1
   129   129   130    2
