@<TRIPOS>MOLECULE
tmp/1okxB01.pdb
 224 218 0 0 0
SMALL
GASTEIGER

@<TRIPOS>ATOM
      1  N         96.3880   -4.3420    9.4320 N.3    20  TYR20      -0.1241
      2  CA        97.0710   -5.0670    8.3700 C.3    20  TYR20       0.1605
      3  C         96.0110   -5.6150    7.4340 C.2    20  TYR20       0.2264
      4  O         94.8640   -5.8690    7.8420 O.2    20  TYR20      -0.2867
      5  CB        97.9320   -6.2160    8.9170 C.3    20  TYR20       0.0534
      6  CG        97.1670   -7.3070    9.6290 C.ar   20  TYR20      -0.0201
      7  CD1       96.8350   -7.1860   10.9780 C.ar   20  TYR20      -0.0009
      8  CD2       96.7680   -8.4550    8.9550 C.ar   20  TYR20      -0.0009
      9  CE1       96.1270   -8.1830   11.6400 C.ar   20  TYR20       0.0417
     10  CE2       96.0550   -9.4580    9.6060 C.ar   20  TYR20       0.0417
     11  CZ        95.7390   -9.3160   10.9500 C.ar   20  TYR20       0.1957
     12  OH        95.0360  -10.3040   11.6050 O.3    20  TYR20      -0.2866
     13  N         92.3160   -4.5880   12.5100 N.3    28  HIS28      -0.1226
     14  CA        93.0520   -3.8360   13.5160 C.3    28  HIS28       0.1752
     15  C         93.9610   -4.8060   14.2530 C.2    28  HIS28       0.2597
     16  O         93.5510   -5.9140   14.5770 O.2    28  HIS28      -0.2718
     17  CB        92.0790   -3.2100   14.5130 C.3    28  HIS28       0.0759
     18  CG        92.7470   -2.5960   15.7000 C.ar   28  HIS28       0.0818
     19  ND1       93.2800   -1.3250   15.6800 N.ar   28  HIS28      -0.2268
     20  CD2       93.0060   -3.0950   16.9300 C.ar   28  HIS28       0.1154
     21  CE1       93.8390   -1.0690   16.8480 C.ar   28  HIS28       0.1986
     22  NE2       93.6880   -2.1270   17.6240 N.ar   28  HIS28      -0.2212
     23  N         95.1890   -4.3900   14.5260 N.am   29  THR29      -0.1939
     24  CA        96.1270   -5.2580   15.2200 C.3    29  THR29       0.2028
     25  C         96.8590   -4.5010   16.3190 C.2    29  THR29       0.2642
     26  O         97.2740   -5.0850   17.3210 O.2    29  THR29      -0.2714
     27  CB        97.1620   -5.8400   14.2360 C.3    29  THR29       0.1808
     28  OG1       98.0780   -6.6860   14.9400 O.3    29  THR29      -0.2208
     29  CG2       97.9360   -4.7200   13.5630 C.3    29  THR29       0.0379
     30  N         97.0090   -3.1950   16.1290 N.am   30  CYS30      -0.1967
     31  CA        97.7070   -2.3670   17.0990 C.3    30  CYS30       0.1712
     32  C         97.2870   -0.9220   17.0550 C.2    30  CYS30       0.2296
     33  O         96.5850   -0.4890   16.1490 O.2    30  CYS30      -0.2864
     34  CB        99.2120   -2.4100   16.8580 C.3    30  CYS30       0.0983
     35  SG       100.0270   -3.9410   17.3790 S.3    30  CYS30      -0.0798
     36  N        107.0540   -5.1790   18.0250 N.3    45  HIS45      -0.1226
     37  CA       106.3590   -6.4390   17.8080 C.3    45  HIS45       0.1752
     38  C        105.0630   -6.3120   17.0290 C.2    45  HIS45       0.2596
     39  O        104.4660   -7.3160   16.6370 O.2    45  HIS45      -0.2718
     40  CB       106.1010   -7.1700   19.1320 C.3    45  HIS45       0.0759
     41  CG       105.0830   -6.5150   20.0160 C.ar   45  HIS45       0.0818
     42  ND1      105.4050   -5.5160   20.9090 N.ar   45  HIS45      -0.2268
     43  CD2      103.7550   -6.7450   20.1690 C.ar   45  HIS45       0.1154
     44  CE1      104.3190   -5.1630   21.5770 C.ar   45  HIS45       0.1986
     45  NE2      103.3050   -5.8930   21.1470 N.ar   45  HIS45      -0.2212
     46  N        104.6100   -5.0890   16.8080 N.am   46  CYS46      -0.1970
     47  CA       103.3960   -4.9060   16.0240 C.3    46  CYS46       0.1712
     48  C        103.7590   -5.0270   14.5490 C.2    46  CYS46       0.2296
     49  O        102.9180   -5.3820   13.7200 O.2    46  CYS46      -0.2864
     50  CB       102.7850   -3.5220   16.2560 C.3    46  CYS46       0.0983
     51  SG       101.9110   -3.3270   17.8350 S.3    46  CYS46      -0.0798
     52  N        107.0480   -6.6200   13.2170 N.3    48  ASP48      -0.1225
     53  CA       108.1120   -7.5390   12.7850 C.3    48  ASP48       0.1805
     54  C        107.6010   -8.1650   11.5010 C.2    48  ASP48       0.2597
     55  O        108.2080   -8.0730   10.4420 O.2    48  ASP48      -0.2718
     56  CB       108.3010   -8.7010   13.7500 C.3    48  ASP48       0.1424
     57  CG       108.7810   -8.2760   15.0900 C.2    48  ASP48       0.3668
     58  OD1      109.8010   -7.5650   15.1680 O.co2  48  ASP48      -0.2456
     59  OD2      108.1420   -8.6770   16.0730 O.co2  48  ASP48      -0.2456
     60  N        106.4630   -8.8250   11.6470 N.am   49  ARG49      -0.1979
     61  CA       105.7610   -9.5150   10.5800 C.3    49  ARG49       0.1597
     62  C        105.8220   -8.8400    9.2090 C.2    49  ARG49       0.2287
     63  O        105.8590   -7.6090    9.1090 O.2    49  ARG49      -0.2864
     64  CB       104.2990   -9.6680   10.9950 C.3    49  ARG49       0.0334
     65  CG       104.1270  -10.2350   12.3900 C.3    49  ARG49       0.0492
     66  CD       102.6990  -10.1000   12.8770 C.3    49  ARG49       0.2205
     67  NE       102.3540   -8.7160   13.1750 N.pl3  49  ARG49      -0.0865
     68  CZ       101.1430   -8.3250   13.5470 C.cat  49  ARG49       0.5346
     69  NH1      100.1700   -9.2200   13.6610 N.pl3  49  ARG49       0.1354
     70  NH2      100.9060   -7.0470   13.8110 N.pl3  49  ARG49       0.1354
     71  N        115.9030   -4.1260   19.1360 N.3    83  TRP83      -0.1241
     72  CA       114.7120   -4.9190   19.4020 C.3    83  TRP83       0.1605
     73  C        114.9470   -6.3970   19.1660 C.2    83  TRP83       0.2264
     74  O        115.4940   -6.7880   18.1420 O.2    83  TRP83      -0.2867
     75  CB       113.5580   -4.4700   18.5190 C.3    83  TRP83       0.0550
     76  CG       112.4200   -5.4560   18.4790 C.ar   83  TRP83       0.0003
     77  CD1      111.9670   -6.1410   17.3860 C.ar   83  TRP83       0.0946
     78  CD2      111.5520   -5.8240   19.5660 C.ar   83  TRP83       0.0152
     79  NE1      110.8690   -6.9030   17.7190 N.ar   83  TRP83      -0.2442
     80  CE2      110.5930   -6.7260   19.0500 C.ar   83  TRP83       0.0810
     81  CE3      111.4900   -5.4760   20.9240 C.ar   83  TRP83       0.0012
     82  CZ2      109.5850   -7.2810   19.8430 C.ar   83  TRP83       0.0191
     83  CZ3      110.4870   -6.0280   21.7100 C.ar   83  TRP83       0.0001
     84  CH2      109.5490   -6.9190   21.1660 C.ar   83  TRP83       0.0015
     85  N        112.8630   -9.6760   18.7330 N.3    85  THR85      -0.1218
     86  CA       111.5250  -10.2250   18.5080 C.3    85  THR85       0.1862
     87  C        111.1370  -11.3890   19.4100 C.2    85  THR85       0.2287
     88  O        109.9610  -11.7480   19.4920 O.2    85  THR85      -0.2866
     89  CB       111.3390  -10.6890   17.0560 C.3    85  THR85       0.1770
     90  OG1      109.9580  -10.9980   16.8310 O.3    85  THR85      -0.2211
     91  CG2      112.1590  -11.9310   16.7900 C.3    85  THR85       0.0375
     92  N        110.5230   -9.6440   24.4480 N.3    88  VAL88      -0.1231
     93  CA       109.8760   -8.3600   24.6550 C.3    88  VAL88       0.1692
     94  C        110.4030   -7.7030   25.9340 C.2    88  VAL88       0.2591
     95  O        110.6290   -6.4950   25.9730 O.2    88  VAL88      -0.2718
     96  CB       108.3350   -8.5260   24.7360 C.3    88  VAL88       0.0266
     97  CG1      107.9620   -9.4140   25.9130 C.3    88  VAL88       0.0020
     98  CG2      107.6680   -7.1590   24.8460 C.3    88  VAL88       0.0020
     99  N        110.6160   -8.5130   26.9650 N.am   89  ALA89      -0.1980
    100  CA       111.1070   -8.0210   28.2450 C.3    89  ALA89       0.1597
    101  C        112.4990   -7.4290   28.1170 C.2    89  ALA89       0.2287
    102  O        113.0070   -6.7970   29.0420 O.2    89  ALA89      -0.2864
    103  CB       111.1110   -9.1530   29.2740 C.3    89  ALA89       0.0319
    104  N         91.0580   -5.6320   23.7300 N.3   134  LEU134     -0.1245
    105  CA        90.0100   -6.3090   24.4890 C.3   134  LEU134      0.1561
    106  C         89.5470   -5.4510   25.6600 C.2   134  LEU134      0.2260
    107  O         90.3470   -4.7560   26.2780 O.2   134  LEU134     -0.2867
    108  CB        90.5280   -7.6470   25.0290 C.3   134  LEU134      0.0270
    109  CG        91.0450   -8.6550   24.0020 C.3   134  LEU134      0.0019
    110  CD1       91.6920   -9.8310   24.7290 C.3   134  LEU134      0.0001
    111  CD2       89.9110   -9.1240   23.1050 C.3   134  LEU134      0.0001
    112  N         87.4360   -7.6720   21.0910 N.3   141  LEU141     -0.1245
    113  CA        88.0540   -6.4140   20.7090 C.3   141  LEU141      0.1561
    114  C         87.0220   -5.2980   20.7230 C.2   141  LEU141      0.2260
    115  O         85.8370   -5.5190   20.4580 O.2   141  LEU141     -0.2867
    116  CB        88.6700   -6.5450   19.3240 C.3   141  LEU141      0.0270
    117  CG        89.9260   -7.4200   19.3160 C.3   141  LEU141      0.0019
    118  CD1       90.2730   -7.8250   17.8930 C.3   141  LEU141      0.0001
    119  CD2       91.0830   -6.6440   19.9720 C.3   141  LEU141      0.0001
    120  N        106.9930   -6.6260   38.8880 N.3   164  TRP164     -0.1241
    121  CA       107.5920   -7.2070   37.7000 C.3   164  TRP164      0.1605
    122  C        109.0260   -7.6580   37.9140 C.2   164  TRP164      0.2264
    123  O        109.5950   -8.3400   37.0700 O.2   164  TRP164     -0.2867
    124  CB       107.5290   -6.2260   36.5320 C.3   164  TRP164      0.0550
    125  CG       106.2480   -6.2900   35.7980 C.ar  164  TRP164      0.0003
    126  CD1      105.2490   -5.3660   35.8140 C.ar  164  TRP164      0.0946
    127  CD2      105.7870   -7.3720   34.9810 C.ar  164  TRP164      0.0152
    128  NE1      104.1860   -5.8040   35.0580 N.ar  164  TRP164     -0.2442
    129  CE2      104.4900   -7.0340   34.5360 C.ar  164  TRP164      0.0810
    130  CE3      106.3430   -8.5970   34.5850 C.ar  164  TRP164      0.0012
    131  CZ2      103.7320   -7.8830   33.7110 C.ar  164  TRP164      0.0191
    132  CZ3      105.5930   -9.4420   33.7660 C.ar  164  TRP164      0.0001
    133  CH2      104.2970   -9.0770   33.3390 C.ar  164  TRP164      0.0015
    134  N        111.9020   -8.2970   35.1850 N.3   167  THR167     -0.1218
    135  CA       111.2840   -8.2680   33.8680 C.3   167  THR167      0.1862
    136  C        111.2930   -6.8500   33.3030 C.2   167  THR167      0.2287
    137  O        111.5670   -6.6590   32.1160 O.2   167  THR167     -0.2866
    138  CB       109.8430   -8.8080   33.9110 C.3   167  THR167      0.1770
    139  OG1      109.8660  -10.1620   34.3810 O.3   167  THR167     -0.2211
    140  CG2      109.2160   -8.7820   32.5330 C.3   167  THR167      0.0375
    141  N         95.8000   -2.3080   29.9150 N.3   183  GLY183     -0.1210
    142  CA        95.6720   -2.4410   28.4790 C.3   183  GLY183      0.1956
    143  C         95.4150   -3.9180   28.2410 C.2   183  GLY183      0.2612
    144  O         95.4420   -4.7010   29.1830 O.2   183  GLY183     -0.2717
    145  N         95.1580   -4.3120   27.0050 N.am  184  CYS184     -0.1956
    146  CA        94.9050   -5.7160   26.7180 C.3   184  CYS184      0.1843
    147  C         95.2110   -5.9600   25.2460 C.2   184  CYS184      0.2625
    148  O         95.4770   -5.0160   24.4990 O.2   184  CYS184     -0.2714
    149  CB        93.4470   -6.0580   27.0440 C.3   184  CYS184      0.0997
    150  SG        93.1290   -7.7460   27.6870 S.3   184  CYS184     -0.0797
    151  N         95.2000   -7.2240   24.8360 N.am  185  GLN185     -0.1963
    152  CA        95.4870   -7.5670   23.4460 C.3   185  GLN185      0.1733
    153  C         94.7760   -6.6250   22.4830 C.2   185  GLN185      0.2616
    154  O         93.5440   -6.5270   22.4820 O.2   185  GLN185     -0.2715
    155  CB        95.0700   -9.0100   23.1440 C.3   185  GLN185      0.0408
    156  CG        96.0250  -10.0790   23.6400 C.3   185  GLN185      0.0908
    157  CD        96.0940  -10.1500   25.1490 C.2   185  GLN185      0.2608
    158  OE1       95.1400   -9.7920   25.8410 O.2   185  GLN185     -0.2717
    159  NE2       97.2200  -10.6340   25.6700 N.am  185  GLN185     -0.0878
    160  N         95.5690   -5.9370   21.6660 N.am  186  GLY186     -0.1955
    161  CA        95.0140   -5.0040   20.7090 C.3   186  GLY186      0.1869
    162  C         95.4180   -3.5780   21.0190 C.2   186  GLY186      0.2309
    163  O         95.2750   -2.6940   20.1790 O.2   186  GLY186     -0.2863
    164  N         98.5990   -2.7810   21.9980 N.3   188  SER188     -0.1217
    165  CA       100.0250   -2.6070   21.7340 C.3   188  SER188      0.1889
    166  C        100.3400   -1.4950   20.7370 C.2   188  SER188      0.2288
    167  O         99.5870   -1.2550   19.7870 O.2   188  SER188     -0.2866
    168  CB       100.6520   -3.9130   21.2360 C.3   188  SER188      0.2089
    169  OG       101.1610   -4.6770   22.3160 O.3   188  SER188     -0.2183
    170  N        102.4930    1.0870   24.5110 N.3   206  THR206     -0.1203
    171  CA       102.0240   -0.1720   25.0800 C.3   206  THR206      0.1994
    172  C        102.7970   -1.4010   24.6030 C.2   206  THR206      0.2619
    173  O        102.7880   -1.7430   23.4210 O.2   206  THR206     -0.2717
    174  CB       100.5550   -0.3480   24.7890 C.3   206  THR206      0.1784
    175  OG1       99.8680    0.8390   25.2060 O.3   206  THR206     -0.2211
    176  CG2      100.0030   -1.5430   25.5490 C.3   206  THR206      0.0376
    177  N        103.4490   -2.0780   25.5410 N.am  207  SER207     -0.1937
    178  CA       104.2540   -3.2340   25.1960 C.3   207  SER207      0.2055
    179  C        103.7140   -4.5960   25.6370 C.2   207  SER207      0.2643
    180  O        103.4120   -5.4370   24.7920 O.2   207  SER207     -0.2714
    181  CB       105.6630   -3.0380   25.7460 C.3   207  SER207      0.2130
    182  OG       106.5700   -3.9630   25.1760 O.3   207  SER207     -0.2179
    183  N        103.5820   -4.8230   26.9410 N.am  208  PHE208     -0.1959
    184  CA       103.1110   -6.1240   27.4040 C.3   208  PHE208      0.1771
    185  C        102.4190   -6.1730   28.7630 C.2   208  PHE208      0.2619
    186  O        102.3540   -5.1840   29.4870 O.2   208  PHE208     -0.2715
    187  CB       104.2920   -7.0920   27.4330 C.3   208  PHE208      0.0574
    188  CG       105.3590   -6.7120   28.4280 C.ar  208  PHE208     -0.0200
    189  CD1      105.2370   -7.0590   29.7680 C.ar  208  PHE208     -0.0042
    190  CD2      106.4860   -6.0080   28.0270 C.ar  208  PHE208     -0.0042
    191  CE1      106.2260   -6.7120   30.6940 C.ar  208  PHE208     -0.0003
    192  CE2      107.4720   -5.6590   28.9440 C.ar  208  PHE208     -0.0003
    193  CZ       107.3440   -6.0100   30.2760 C.ar  208  PHE208     -0.0000
    194  N        101.9170   -7.3630   29.0870 N.am  209  VAL209     -0.1963
    195  CA       101.2360   -7.6550   30.3480 C.3   209  VAL209      0.1727
    196  C        101.6830   -9.0490   30.7570 C.2   209  VAL209      0.2617
    197  O        102.4440   -9.6920   30.0350 O.2   209  VAL209     -0.2715
    198  CB        99.7010   -7.6860   30.1980 C.3   209  VAL209      0.0290
    199  CG1       99.1820   -6.3190   29.7760 C.3   209  VAL209      0.0023
    200  CG2       99.3080   -8.7480   29.1920 C.3   209  VAL209      0.0023
    201  N        101.2010   -9.5250   31.8990 N.am  210  SER210     -0.1936
    202  CA       101.5860  -10.8520   32.3750 C.3   210  SER210      0.2055
    203  C        100.8300  -11.9750   31.6730 C.2   210  SER210      0.2642
    204  O         99.7120  -11.7900   31.2040 O.2   210  SER210     -0.2714
    205  CB       101.3640  -10.9610   33.8900 C.3   210  SER210      0.2130
    206  OG       100.4160  -11.9680   34.2080 O.3   210  SER210     -0.2179
    207  N        101.4580  -13.1430   31.6100 N.am  211  ARG211     -0.1977
    208  CA       100.8570  -14.3120   30.9850 C.3   211  ARG211      0.1597
    209  C         99.5400  -14.6130   31.6980 C.2   211  ARG211      0.2287
    210  O         98.6290  -15.2150   31.1210 O.2   211  ARG211     -0.2864
    211  CB       101.7870  -15.5240   31.1290 C.3   211  ARG211      0.0334
    212  CG       103.2050  -15.3630   30.5880 C.3   211  ARG211      0.0492
    213  CD       103.2790  -15.6520   29.0950 C.3   211  ARG211      0.2205
    214  NE       104.6570  -15.6950   28.6030 N.pl3 211  ARG211     -0.0865
    215  CZ       105.4870  -16.7240   28.7570 C.cat 211  ARG211      0.5346
    216  NH1      105.0890  -17.8190   29.3930 N.pl3 211  ARG211      0.1354
    217  NH2      106.7230  -16.6550   28.2730 N.pl3 211  ARG211      0.1354
    218  N        100.3250   -2.6870   33.3660 N.3   221  THR221     -0.1218
    219  CA       100.6160   -2.7150   31.9420 C.3   221  THR221      0.1862
    220  C        101.9860   -2.0620   31.7940 C.2   221  THR221      0.2287
    221  O        102.2960   -1.1090   32.4990 O.2   221  THR221     -0.2866
    222  CB        99.5730   -1.9120   31.1420 C.3   221  THR221      0.1770
    223  OG1       98.2920   -2.5290   31.2900 O.3   221  THR221     -0.2211
    224  CG2       99.9400   -1.8650   29.6610 C.3   221  THR221      0.0375
@<TRIPOS>BOND
     1     3     4    2
     2     3     2    1
     3     2     5    1
     4     2     1    1
     5     5     6    1
     6     8    10   ar
     7     8     6   ar
     8    63    62    2
     9    62    61    1
    10    10    11   ar
    11     6     7   ar
    12    55    54    2
    13    61    64    1
    14    61    60    1
    15    11    12    1
    16    11     9   ar
    17     7     9   ar
    18    64    65    1
    19    54    60   am
    20    54    53    1
    21    65    66    1
    22    13    14    1
    23    53    52    1
    24    53    56    1
    25    66    67    1
    26    67    68    2
    27    14    15    1
    28    14    17    1
    29    68    69    1
    30    68    70    1
    31    29    27    1
    32    49    48    2
    33    56    57    1
    34    27    28    1
    35    27    24    1
    36    15    23   am
    37    15    16    2
    38    17    18    1
    39    23    24    1
    40    48    47    1
    41    57    58   ar
    42    57    59   ar
    43    24    25    1
    44    19    18   ar
    45    19    21   ar
    46    18    20   ar
    47    47    50    1
    48    47    46    1
    49    30    25   am
    50    30    31    1
    51    33    32    2
    52    50    51    1
    53    25    26    2
    54    39    38    2
    55    91    89    1
    56    46    38   am
    57    90    89    1
    58    21    22   ar
    59    34    31    1
    60    34    35    1
    61    20    22   ar
    62    38    37    1
    63    32    31    1
    64    89    86    1
    65    35    51    1
    66    77    79   ar
    67    77    76   ar
    68    79    80   ar
    69    37    36    1
    70    37    40    1
    71   118   117    1
    72    74    73    2
    73    76    75    1
    74    76    78   ar
    75    86    85    1
    76    86    87    1
    77    75    72    1
    78    80    78   ar
    79    80    82   ar
    80    40    41    1
    81    71    72    1
    82    73    72    1
    83   117   116    1
    84   117   119    1
    85   116   113    1
    86    87    88    2
    87    78    81   ar
    88   167   166    2
    89    82    84   ar
    90    41    43   ar
    91    41    42   ar
    92    43    45   ar
    93   163   162    2
    94   115   114    2
    95   161   162    1
    96   161   160    1
    97   113   114    1
    98   113   112    1
    99   166   165    1
   100    42    44   ar
   101    81    83   ar
   102    45    44   ar
   103    84    83   ar
   104   168   165    1
   105   168   169    1
   106   160   153   am
   107   165   164    1
   108   154   153    2
   109   153   152    1
   110   111   109    1
   111   155   152    1
   112   155   156    1
   113   173   172    2
   114   152   151    1
   115   156   157    1
   116   104   105    1
   117   109   110    1
   118   109   108    1
   119    92    93    1
   120   105   108    1
   121   105   106    1
   122   148   147    2
   123   170   171    1
   124   172   171    1
   125   172   177   am
   126    93    96    1
   127    93    94    1
   128    96    98    1
   129    96    97    1
   130   174   171    1
   131   174   175    1
   132   174   176    1
   133   180   179    2
   134   151   147   am
   135   157   159   am
   136   157   158    2
   137   182   181    1
   138   178   177    1
   139   178   179    1
   140   178   181    1
   141   147   146    1
   142   179   183   am
   143   106   107    2
   144    94    95    2
   145    94    99   am
   146   146   145    1
   147   146   149    1
   148   183   184    1
   149    99   100    1
   150   145   143   am
   151   149   150    1
   152   184   187    1
   153   184   185    1
   154   187   188    1
   155   190   188   ar
   156   190   192   ar
   157   101   100    1
   158   101   102    2
   159   143   142    1
   160   143   144    2
   161   100   103    1
   162   217   215    1
   163   188   189   ar
   164   142   141    1
   165   214   215    2
   166   214   213    1
   167   215   216    1
   168   185   194   am
   169   185   186    2
   170   192   193   ar
   171   194   195    1
   172   213   212    1
   173   200   198    1
   174   224   222    1
   175   189   191   ar
   176   199   198    1
   177   197   196    2
   178   198   195    1
   179   193   191   ar
   180   195   196    1
   181   212   211    1
   182   196   201   am
   183   208   211    1
   184   208   207    1
   185   208   209    1
   186   210   209    2
   187   222   223    1
   188   222   219    1
   189   204   203    2
   190   207   203   am
   191   203   202    1
   192   220   219    1
   193   220   221    2
   194   201   202    1
   195   219   218    1
   196   137   136    2
   197   202   205    1
   198   140   138    1
   199   136   135    1
   200   133   131   ar
   201   133   132   ar
   202   131   129   ar
   203   132   130   ar
   204   135   138    1
   205   135   134    1
   206   205   206    1
   207   138   139    1
   208   129   127   ar
   209   129   128   ar
   210   130   127   ar
   211   127   125   ar
   212   128   126   ar
   213   125   126   ar
   214   125   124    1
   215   124   121    1
   216   123   122    2
   217   121   122    1
   218   121   120    1
