@<TRIPOS>MOLECULE
tmp/1okyA00.pdb
 183 171 0 0 0
SMALL
GASTEIGER

@<TRIPOS>ATOM
      1  N         84.2260   17.4630   19.2880 N.3    17  LEU17      -0.1231
      2  CA        84.9640   17.6140   18.0390 C.3    17  LEU17       0.1693
      3  C         84.6570   18.9640   17.4280 C.2    17  LEU17       0.2593
      4  O         85.5120   19.5770   16.7940 O.2    17  LEU17      -0.2718
      5  CB        84.5860   16.5150   17.0440 C.3    17  LEU17       0.0284
      6  CG        84.8990   15.1070   17.5350 C.3    17  LEU17       0.0019
      7  CD1       84.4550   14.0820   16.5020 C.3    17  LEU17       0.0001
      8  CD2       86.3920   15.0040   17.8130 C.3    17  LEU17       0.0001
      9  N         83.4300   19.4280   17.6190 N.am   18  GLY18      -0.1942
     10  CA        83.0570   20.7100   17.0620 C.3    18  GLY18       0.2014
     11  C         81.6490   21.1310   17.4310 C.2    18  GLY18       0.2639
     12  O         80.8340   20.3180   17.8820 O.2    18  GLY18      -0.2714
     13  N         81.3630   22.4120   17.2240 N.am   19  GLU19      -0.1963
     14  CA        80.0630   22.9640   17.5420 C.3    19  GLU19       0.1733
     15  C         79.4360   23.7430   16.4020 C.2    19  GLU19       0.2616
     16  O         80.1100   24.1850   15.4710 O.2    19  GLU19      -0.2715
     17  CB        80.1680   23.8530   18.7840 C.3    19  GLU19       0.0429
     18  CG        80.1120   23.0610   20.0820 C.3    19  GLU19       0.1163
     19  CD        80.4220   23.8930   21.3130 C.2    19  GLU19       0.3649
     20  OE1       81.6100   24.2280   21.5260 O.co2  19  GLU19      -0.2457
     21  OE2       79.4760   24.2100   22.0670 O.co2  19  GLU19      -0.2457
     22  N         78.1210   23.8810   16.4880 N.am   20  GLY20      -0.1955
     23  CA        77.3630   24.6180   15.5030 C.3    20  GLY20       0.1869
     24  C         76.3030   25.3350   16.3060 C.2    20  GLY20       0.2309
     25  O         76.1540   25.0830   17.5070 O.2    20  GLY20      -0.2863
     26  N         73.3920   24.9940   15.6890 N.3    22  PHE22      -0.1241
     27  CA        72.4340   23.9090   15.6970 C.3    22  PHE22       0.1605
     28  C         72.7000   22.7540   16.6620 C.2    22  PHE22       0.2264
     29  O         71.7720   22.2450   17.2920 O.2    22  PHE22      -0.2867
     30  CB        72.2970   23.3690   14.2630 C.3    22  PHE22       0.0534
     31  CG        73.5880   23.3980   13.4590 C.ar   22  PHE22      -0.0203
     32  CD1       74.3010   22.2290   13.2090 C.ar   22  PHE22      -0.0042
     33  CD2       74.0580   24.5930   12.9150 C.ar   22  PHE22      -0.0042
     34  CE1       75.4590   22.2450   12.4240 C.ar   22  PHE22      -0.0003
     35  CE2       75.2090   24.6220   12.1350 C.ar   22  PHE22      -0.0003
     36  CZ        75.9110   23.4430   11.8870 C.ar   22  PHE22      -0.0000
     37  N         78.9910   18.1000   18.1840 N.3    25  VAL25      -0.1245
     38  CA        79.5050   16.8130   17.7330 C.3    25  VAL25       0.1561
     39  C         80.5660   16.3510   18.7160 C.2    25  VAL25       0.2260
     40  O         81.6000   17.0060   18.8890 O.2    25  VAL25      -0.2867
     41  CB        80.1390   16.9090   16.3360 C.3    25  VAL25       0.0252
     42  CG1       80.6250   15.5300   15.8980 C.3    25  VAL25       0.0019
     43  CG2       79.1310   17.4470   15.3440 C.3    25  VAL25       0.0019
     44  N         81.3700    9.6030   15.9120 N.3    38  ALA38      -0.1245
     45  CA        81.2740   11.0360   16.1140 C.3    38  ALA38       0.1562
     46  C         79.7590   11.2050   16.1780 C.2    38  ALA38       0.2260
     47  O         79.0560   11.0190   15.1790 O.2    38  ALA38      -0.2867
     48  CB        81.8530   11.7840   14.9280 C.3    38  ALA38       0.0290
     49  N         76.4440   13.4150   16.5970 N.3    40  LYS40      -0.1245
     50  CA        75.9020   14.7610   16.5510 C.3    40  LYS40       0.1561
     51  C         74.7240   14.8190   17.5070 C.2    40  LYS40       0.2260
     52  O         73.7970   14.0080   17.4100 O.2    40  LYS40      -0.2867
     53  CB        75.4550   15.1150   15.1310 C.3    40  LYS40       0.0271
     54  CG        75.0160   16.5580   14.9750 C.3    40  LYS40       0.0035
     55  CD        75.0050   16.9710   13.5160 C.3    40  LYS40       0.0206
     56  CE        74.4260   18.3590   13.3430 C.3    40  LYS40       0.1093
     57  NZ        74.6190   18.8710   11.9720 N.3    40  LYS40      -0.1314
     58  N         68.6060   16.8950    6.8220 N.3    59  GLU59      -0.1245
     59  CA        69.9880   16.4900    7.0570 C.3    59  GLU59       0.1567
     60  C         70.0630   14.9840    7.2730 C.2    59  GLU59       0.2260
     61  O         70.8610   14.2980    6.6380 O.2    59  GLU59      -0.2867
     62  CB        70.5560   17.2030    8.2870 C.3    59  GLU59       0.0388
     63  CG        72.0780   17.2200    8.3440 C.3    59  GLU59       0.1160
     64  CD        72.6330   17.6500    9.7020 C.2    59  GLU59       0.3649
     65  OE1       71.9460   18.4080   10.4270 O.co2  59  GLU59      -0.2457
     66  OE2       73.7710   17.2360   10.0350 O.co2  59  GLU59      -0.2457
     67  N         71.7640   12.1380    4.5200 N.3    63  MET63      -0.1245
     68  CA        72.8120   11.2430    4.9950 C.3    63  MET63       0.1570
     69  C         72.4310    9.7790    4.9010 C.2    63  MET63       0.2261
     70  O         73.2760    8.9380    4.5990 O.2    63  MET63      -0.2867
     71  CB        73.2100   11.5760    6.4360 C.3    63  MET63       0.0387
     72  CG        74.0560   12.8340    6.5390 C.3    63  MET63       0.0595
     73  SD        74.8750   13.0350    8.1320 S.3    63  MET63      -0.1393
     74  CE        73.5450   13.7410    9.1040 C.3    63  MET63       0.0692
     75  N         80.7360   10.9830    5.0410 N.3    72  VAL72      -0.1245
     76  CA        80.5780   10.4990    6.4010 C.3    72  VAL72       0.1561
     77  C         79.2990    9.6830    6.3960 C.2    72  VAL72       0.2260
     78  O         78.2800   10.1240    5.8950 O.2    72  VAL72      -0.2867
     79  CB        80.4560   11.6700    7.4040 C.3    72  VAL72       0.0252
     80  CG1       80.0810   11.1450    8.7830 C.3    72  VAL72       0.0019
     81  CG2       81.7810   12.4330    7.4730 C.3    72  VAL72       0.0019
     82  N         77.6770    9.0960   13.5670 N.3    88  LEU88      -0.1231
     83  CA        78.3860    9.2630   12.3020 C.3    88  LEU88       0.1693
     84  C         79.7800    8.6650   12.3750 C.2    88  LEU88       0.2593
     85  O         80.3380    8.5180   13.4650 O.2    88  LEU88      -0.2718
     86  CB        78.5020   10.7530   11.9840 C.3    88  LEU88       0.0284
     87  CG        77.1610   11.4850   12.0680 C.3    88  LEU88       0.0019
     88  CD1       77.3760   12.9920   12.0580 C.3    88  LEU88       0.0001
     89  CD2       76.2800   11.0360   10.9060 C.3    88  LEU88       0.0001
     90  N         80.3430    8.3200   11.2200 N.am   89  SER89      -0.1938
     91  CA        81.6910    7.7700   11.1940 C.3    89  SER89       0.2055
     92  C         82.6550    8.8310   11.7240 C.2    89  SER89       0.2643
     93  O         82.4130   10.0320   11.5880 O.2    89  SER89      -0.2714
     94  CB        82.0860    7.3620    9.7710 C.3    89  SER89       0.2130
     95  OG        81.8660    8.4210    8.8640 O.3    89  SER89      -0.2179
     96  N         83.7430    8.3840   12.3350 N.am   90  TYR90      -0.1959
     97  CA        84.7230    9.3000   12.9010 C.3    90  TYR90       0.1771
     98  C         85.9340    9.4590   11.9970 C.2    90  TYR90       0.2619
     99  O         86.6210    8.4910   11.6750 O.2    90  TYR90      -0.2715
    100  CB        85.1460    8.8020   14.2930 C.3    90  TYR90       0.0574
    101  CG        86.2690    9.5820   14.9440 C.ar   90  TYR90      -0.0198
    102  CD1       86.2760   10.9780   14.9290 C.ar   90  TYR90      -0.0009
    103  CD2       87.3130    8.9230   15.6120 C.ar   90  TYR90      -0.0009
    104  CE1       87.2830   11.7030   15.5590 C.ar   90  TYR90       0.0417
    105  CE2       88.3300    9.6470   16.2520 C.ar   90  TYR90       0.0417
    106  CZ        88.3010   11.0390   16.2200 C.ar   90  TYR90       0.1957
    107  OH        89.2660   11.7760   16.8730 O.3    90  TYR90      -0.2866
    108  N         86.1820   10.6860   11.5710 N.am   91  ALA91      -0.1963
    109  CA        87.3200   10.9690   10.7170 C.3    91  ALA91       0.1728
    110  C         88.3750   11.6170   11.6040 C.2    91  ALA91       0.2616
    111  O         88.3910   12.8350   11.7520 O.2    91  ALA91      -0.2715
    112  CB        86.9070   11.9190    9.5920 C.3    91  ALA91       0.0334
    113  N         89.2370   10.7870   12.1950 N.am   92  LYS92      -0.1977
    114  CA        90.2940   11.2320   13.1020 C.3    92  LYS92       0.1596
    115  C         91.0820   12.4820   12.7190 C.2    92  LYS92       0.2287
    116  O         91.2760   13.3730   13.5410 O.2    92  LYS92      -0.2864
    117  CB        91.3150   10.1090   13.3320 C.3    92  LYS92       0.0298
    118  CG        90.8740    8.9870   14.2510 C.3    92  LYS92       0.0038
    119  CD        92.0000    7.9700   14.4560 C.3    92  LYS92       0.0206
    120  CE        91.5560    6.7940   15.3420 C.3    92  LYS92       0.1093
    121  NZ        91.2520    7.2000   16.7520 N.3    92  LYS92      -0.1314
    122  N         90.4190   15.1220   11.1160 N.3    94  GLY94      -0.1210
    123  CA        89.7610   16.4130   11.0430 C.3    94  GLY94       0.1956
    124  C         89.6630   17.1230    9.7040 C.2    94  GLY94       0.2611
    125  O         89.6320   16.5010    8.6430 O.2    94  GLY94      -0.2717
    126  N         89.6230   18.4490    9.7730 N.am   95  GLU95      -0.1979
    127  CA        89.4670   19.3010    8.6020 C.3    95  GLU95       0.1602
    128  C         90.6120   19.3540    7.6020 C.2    95  GLU95       0.2287
    129  O         91.7860   19.4730    7.9680 O.2    95  GLU95      -0.2864
    130  CB        89.1640   20.7390    9.0360 C.3    95  GLU95       0.0415
    131  CG        88.2710   20.8750   10.2570 C.3    95  GLU95       0.1163
    132  CD        87.8120   22.3020   10.4740 C.2    95  GLU95       0.3649
    133  OE1       88.5860   23.2210   10.1300 O.co2  95  GLU95      -0.2457
    134  OE2       86.6860   22.5100   10.9890 O.co2  95  GLU95      -0.2457
    135  N         83.3280   23.3300    1.4240 N.3   136  LYS136     -0.1245
    136  CA        84.5170   24.0830    1.7960 C.3   136  LYS136      0.1561
    137  C         85.4440   23.1830    2.6020 C.2   136  LYS136      0.2260
    138  O         85.0140   22.1690    3.1440 O.2   136  LYS136     -0.2867
    139  CB        84.1130   25.3050    2.6290 C.3   136  LYS136      0.0271
    140  CG        83.2780   24.9480    3.8300 C.3   136  LYS136      0.0035
    141  CD        82.7750   26.1790    4.5680 C.3   136  LYS136      0.0206
    142  CE        81.9130   25.7810    5.7670 C.3   136  LYS136      0.1093
    143  NZ        81.5800   26.9100    6.6860 N.3   136  LYS136     -0.1314
    144  N         86.5410   23.1760    5.5140 N.3   138  GLU138     -0.1231
    145  CA        86.1320   22.9030    6.8940 C.3   138  GLU138      0.1699
    146  C         85.0390   21.8400    6.9720 C.2   138  GLU138      0.2592
    147  O         84.7860   21.2690    8.0350 O.2   138  GLU138     -0.2718
    148  CB        85.6410   24.1900    7.5700 C.3   138  GLU138      0.0402
    149  CG        86.6160   25.3590    7.4790 C.3   138  GLU138      0.1161
    150  CD        86.4590   26.1830    6.1990 C.2   138  GLU138      0.3649
    151  OE1       86.5750   25.6280    5.0790 O.co2 138  GLU138     -0.2457
    152  OE2       86.2190   27.4050    6.3220 O.co2 138  GLU138     -0.2457
    153  N         84.3950   21.5830    5.8410 N.am  139  ASN139     -0.1974
    154  CA        83.3390   20.5870    5.7510 C.3   139  ASN139      0.1688
    155  C         83.8850   19.2890    5.1580 C.2   139  ASN139      0.2292
    156  O         83.2070   18.2680    5.1550 O.2   139  ASN139     -0.2864
    157  CB        82.1950   21.1050    4.8660 C.3   139  ASN139      0.1181
    158  CG        81.2250   21.9980    5.6220 C.2   139  ASN139      0.2629
    159  OD1       80.2800   22.5390    5.0400 O.2   139  ASN139     -0.2716
    160  ND2       81.4490   22.1550    6.9230 N.am  139  ASN139     -0.0877
    161  N         86.3770   16.5100    5.6700 N.3   141  LEU141     -0.1245
    162  CA        87.2280   15.9100    6.6850 C.3   141  LEU141      0.1561
    163  C         88.1480   14.8330    6.1390 C.2   141  LEU141      0.2260
    164  O         88.0340   14.4200    4.9830 O.2   141  LEU141     -0.2867
    165  CB        86.3520   15.3310    7.8010 C.3   141  LEU141      0.0270
    166  CG        85.2700   16.2810    8.3470 C.3   141  LEU141      0.0019
    167  CD1       84.5430   15.6130    9.4940 C.3   141  LEU141      0.0001
    168  CD2       85.9030   17.5920    8.8170 C.3   141  LEU141      0.0001
    169  N         80.9950   16.0240    4.8640 N.3   151  THR151     -0.1203
    170  CA        79.8440   16.0080    5.7530 C.3   151  THR151      0.1994
    171  C         79.1790   17.3700    5.9330 C.2   151  THR151      0.2617
    172  O         79.5050   18.3340    5.2290 O.2   151  THR151     -0.2717
    173  CB        80.2180   15.4200    7.1260 C.3   151  THR151      0.1784
    174  OG1       79.0190   15.1450    7.8630 O.3   151  THR151     -0.2211
    175  CG2       81.1050   16.3800    7.9080 C.3   151  THR151      0.0376
    176  N         78.2480   17.4270    6.8810 N.am  152  ASP152     -0.1973
    177  CA        77.4490   18.6110    7.2020 C.3   152  ASP152      0.1709
    178  C         76.4610   18.8820    6.0800 C.2   152  ASP152      0.2293
    179  O         76.6930   19.7440    5.2270 O.2   152  ASP152     -0.2864
    180  CB        78.3030   19.8650    7.4220 C.3   152  ASP152      0.1436
    181  CG        77.5380   20.9620    8.1750 C.2   152  ASP152      0.3671
    182  OD1       76.2880   20.8760    8.2780 O.co2 152  ASP152     -0.2456
    183  OD2       78.1770   21.9110    8.6710 O.co2 152  ASP152     -0.2456
@<TRIPOS>BOND
     1   135   136    1
     2   136   137    1
     3   136   139    1
     4   137   138    2
     5   139   140    1
     6   140   141    1
     7    67    68    1
     8   141   142    1
     9    70    69    2
    10   169   170    1
    11   157   158    1
    12   157   154    1
    13    69    68    1
    14   164   163    2
    15    68    71    1
    16   159   158    2
    17    75    76    1
    18   151   150   ar
    19   156   155    2
    20   155   154    1
    21   179   178    2
    22   172   171    2
    23   144   145    1
    24   158   160   am
    25   161   162    1
    26   154   153    1
    27   170   171    1
    28   170   173    1
    29   142   143    1
    30   153   146   am
    31    78    77    2
    32   171   176   am
    33   178   177    1
    34   163   162    1
    35   150   152   ar
    36   150   149    1
    37    77    76    1
    38    76    79    1
    39    71    72    1
    40    72    73    1
    41    61    60    2
    42   162   165    1
    43    58    59    1
    44   176   177    1
    45   145   146    1
    46   145   148    1
    47   146   147    2
    48    59    60    1
    49    59    62    1
    50   173   174    1
    51   173   175    1
    52   177   180    1
    53    79    81    1
    54    79    80    1
    55   180   181    1
    56   149   148    1
    57   128   129    2
    58   128   127    1
    59   165   166    1
    60    73    74    1
    61   181   182   ar
    62   181   183   ar
    63    62    63    1
    64    63    64    1
    65   166   168    1
    66   166   167    1
    67   127   130    1
    68   127   126    1
    69   125   124    2
    70    95    94    1
    71   130   131    1
    72   112   109    1
    73    64    66   ar
    74    64    65   ar
    75   124   126   am
    76   124   123    1
    77    94    91    1
    78   133   132   ar
    79   131   132    1
    80   132   134   ar
    81   109   108    1
    82   109   110    1
    83    89    87    1
    84   123   122    1
    85    91    90    1
    86    91    92    1
    87    90    84   am
    88   108    98   am
    89    93    92    2
    90   110   111    2
    91   110   113   am
    92    99    98    2
    93    92    96   am
    94    36    35   ar
    95    36    34   ar
    96    57    56    1
    97    86    87    1
    98    86    83    1
    99    98    97    1
   100    88    87    1
   101    35    33   ar
   102   113   114    1
   103    83    84    1
   104    83    82    1
   105    96    97    1
   106    84    85    2
   107    34    32   ar
   108   115   114    1
   109   115   116    2
   110    97   100    1
   111    33    31   ar
   112   114   117    1
   113    32    31   ar
   114   117   118    1
   115    56    55    1
   116    31    30    1
   117    55    54    1
   118   118   119    1
   119    30    27    1
   120   100   101    1
   121   119   120    1
   122    48    45    1
   123   102   101   ar
   124   102   104   ar
   125   101   103   ar
   126    54    53    1
   127    53    50    1
   128    47    46    2
   129   120   121    1
   130    43    41    1
   131    16    15    2
   132    23    24    1
   133    23    22    1
   134   104   106   ar
   135   103   105   ar
   136    26    27    1
   137    27    28    1
   138    42    41    1
   139    44    45    1
   140    45    46    1
   141   106   105   ar
   142   106   107    1
   143    24    25    2
   144    41    38    1
   145    15    22   am
   146    15    14    1
   147     7     6    1
   148    50    49    1
   149    50    51    1
   150    28    29    2
   151     4     3    2
   152     5     6    1
   153     5     2    1
   154    10    11    1
   155    10     9    1
   156    13    11   am
   157    13    14    1
   158    52    51    2
   159     3     9   am
   160     3     2    1
   161    11    12    2
   162     6     8    1
   163    14    17    1
   164    38    37    1
   165    38    39    1
   166     2     1    1
   167    39    40    2
   168    17    18    1
   169    18    19    1
   170    19    20   ar
   171    19    21   ar
