@<TRIPOS>MOLECULE
tmp/1ol1D00.pdb
 135 129 0 0 0
SMALL
GASTEIGER

@<TRIPOS>ATOM
      1  N          9.9350   77.7460   11.8740 N.3    36  MET36      -0.1245
      2  CA        10.1740   77.0290   13.1390 C.3    36  MET36       0.1570
      3  C         11.6540   76.6620   13.3360 C.2    36  MET36       0.2261
      4  O         12.1760   76.6450   14.4630 O.2    36  MET36      -0.2867
      5  CB         9.3060   75.7700   13.2470 C.3    36  MET36       0.0387
      6  CG         8.2060   75.6440   12.1680 C.3    36  MET36       0.0595
      7  SD         7.2090   74.1110   12.3350 S.3    36  MET36      -0.1393
      8  CE         5.6790   74.5400   11.7010 C.3    36  MET36       0.0692
      9  N         13.0050   79.9520   14.9370 N.3    39  ILE39      -0.1231
     10  CA        12.6680   79.8850   16.3450 C.3    39  ILE39       0.1692
     11  C         13.6950   79.0560   17.0760 C.2    39  ILE39       0.2591
     12  O         14.2180   79.5020   18.1030 O.2    39  ILE39      -0.2718
     13  CB        11.3000   79.2700   16.5710 C.3    39  ILE39       0.0266
     14  CG1       10.2000   80.2820   16.2960 C.3    39  ILE39       0.0019
     15  CG2       11.2120   78.8390   18.0010 C.3    39  ILE39       0.0020
     16  CD1        9.4040   79.9550   15.0630 C.3    39  ILE39       0.0001
     17  N         13.9920   77.8690   16.5390 N.am   40  LEU40      -0.1980
     18  CA        14.7100   76.8320   17.2930 C.3    40  LEU40       0.1596
     19  C         16.1400   77.2310   17.5020 C.2    40  LEU40       0.2287
     20  O         16.6440   77.2140   18.6270 O.2    40  LEU40      -0.2864
     21  CB        14.6930   75.5200   16.5080 C.3    40  LEU40       0.0297
     22  CG        15.6660   74.4680   17.0020 C.3    40  LEU40       0.0022
     23  CD1       15.3150   74.0810   18.3720 C.3    40  LEU40       0.0001
     24  CD2       15.6070   73.3110   16.1340 C.3    40  LEU40       0.0001
     25  N         17.3700   80.0430   17.2310 N.3    42  ASP42      -0.1225
     26  CA        17.3880   81.2670   18.0370 C.3    42  ASP42       0.1805
     27  C         17.3090   80.9500   19.5160 C.2    42  ASP42       0.2597
     28  O         18.0300   81.5120   20.3320 O.2    42  ASP42      -0.2718
     29  CB        16.2300   82.1960   17.6530 C.3    42  ASP42       0.1424
     30  CG        16.3040   83.5640   18.3550 C.2    42  ASP42       0.3668
     31  OD1       16.9290   84.4980   17.8130 O.co2  42  ASP42      -0.2456
     32  OD2       15.7860   83.8060   19.4660 O.co2  42  ASP42      -0.2456
     33  N         16.4860   79.9720   19.8420 N.am   43  TRP43      -0.1976
     34  CA        16.4150   79.4870   21.2180 C.3    43  TRP43       0.1640
     35  C         17.7720   78.9770   21.7060 C.2    43  TRP43       0.2290
     36  O         18.0290   78.8980   22.9140 O.2    43  TRP43      -0.2864
     37  CB        15.3390   78.3880   21.3460 C.3    43  TRP43       0.0576
     38  CG        15.2310   77.8630   22.7380 C.ar   43  TRP43       0.0006
     39  CD1       14.8510   78.5450   23.8580 C.ar   43  TRP43       0.0946
     40  CD2       15.5650   76.5460   23.1720 C.ar   43  TRP43       0.0152
     41  NE1       14.9180   77.7290   24.9640 N.ar   43  TRP43      -0.2442
     42  CE2       15.3480   76.4930   24.5600 C.ar   43  TRP43       0.0810
     43  CE3       15.9970   75.3870   22.5110 C.ar   43  TRP43       0.0012
     44  CZ2       15.5790   75.3510   25.2950 C.ar   43  TRP43       0.0191
     45  CZ3       16.2130   74.2610   23.2200 C.ar   43  TRP43       0.0001
     46  CH2       16.0260   74.2420   24.6100 C.ar   43  TRP43       0.0015
     47  N         20.1100   81.4970   22.9690 N.3    46  GLU46      -0.1245
     48  CA        19.8700   81.8300   24.3550 C.3    46  GLU46       0.1567
     49  C         20.3650   80.7590   25.3490 C.2    46  GLU46       0.2260
     50  O         20.7420   81.1130   26.4980 O.2    46  GLU46      -0.2867
     51  CB        18.3910   82.1450   24.5750 C.3    46  GLU46       0.0388
     52  CG        18.0280   83.6180   24.4020 C.3    46  GLU46       0.1160
     53  CD        16.5790   83.9090   24.8090 C.2    46  GLU46       0.3649
     54  OE1       15.9180   83.0410   25.4420 O.co2  46  GLU46      -0.2457
     55  OE2       16.0820   85.0180   24.4930 O.co2  46  GLU46      -0.2457
     56  N          6.7590   68.6330   14.6060 N.3    76  ARG76      -0.1231
     57  CA         7.0160   69.9260   15.2310 C.3    76  ARG76       0.1694
     58  C          7.1050   69.8330   16.7480 C.2    76  ARG76       0.2592
     59  O          7.9430   70.4550   17.3670 O.2    76  ARG76      -0.2718
     60  CB         5.9240   70.8900   14.8320 C.3    76  ARG76       0.0321
     61  CG         4.5870   70.5150   15.3840 C.3    76  ARG76       0.0489
     62  CD         3.4760   71.4230   14.9100 C.3    76  ARG76       0.2205
     63  NE         3.4140   71.4110   13.4600 N.pl3  76  ARG76      -0.0865
     64  CZ         2.6900   72.2630   12.7760 C.cat  76  ARG76       0.5346
     65  NH1        1.9480   73.1580   13.4350 N.pl3  76  ARG76       0.1354
     66  NH2        2.7120   72.2080   11.4450 N.pl3  76  ARG76       0.1354
     67  N          6.3570   68.9240   17.3250 N.am   77  GLY77      -0.1957
     68  CA         6.5060   68.6640   18.7340 C.3    77  GLY77       0.1869
     69  C          7.7560   67.9000   19.1780 C.2    77  GLY77       0.2309
     70  O          8.0300   67.7700   20.3770 O.2    77  GLY77      -0.2863
     71  N         10.7190   68.7400   17.5140 N.3    79  LEU79      -0.1231
     72  CA        11.7570   69.5540   16.9010 C.3    79  LEU79       0.1693
     73  C         12.7400   70.0190   17.9780 C.2    79  LEU79       0.2591
     74  O         13.9490   69.9860   17.7840 O.2    79  LEU79      -0.2718
     75  CB        11.1080   70.7410   16.1880 C.3    79  LEU79       0.0284
     76  CG        12.1050   71.5890   15.4180 C.3    79  LEU79       0.0019
     77  CD1       13.3370   70.7460   15.1060 C.3    79  LEU79       0.0001
     78  CD2       11.5070   72.2150   14.1390 C.3    79  LEU79       0.0001
     79  N         12.2090   70.4460   19.1190 N.am   80  GLN80      -0.1979
     80  CA        13.0100   71.0280   20.1990 C.3    80  GLN80       0.1601
     81  C         13.8540   69.9580   20.8750 C.2    80  GLN80       0.2287
     82  O         14.8930   70.2420   21.4760 O.2    80  GLN80      -0.2864
     83  CB        12.0950   71.7010   21.2390 C.3    80  GLN80       0.0394
     84  CG        12.6590   71.8180   22.6520 C.3    80  GLN80       0.0908
     85  CD        12.1440   73.0410   23.4300 C.2    80  GLN80       0.2608
     86  OE1       10.9520   73.2760   23.5150 O.2    80  GLN80      -0.2717
     87  NE2       13.0570   73.8180   23.9800 N.am   80  GLN80      -0.0878
     88  N         15.8270   70.5910   31.7810 N.3   106  TYR106     -0.1227
     89  CA        15.2020   71.6840   32.5140 C.3   106  TYR106      0.1736
     90  C         15.1050   72.8980   31.6060 C.2   106  TYR106      0.2595
     91  O         14.1820   73.6800   31.7390 O.2   106  TYR106     -0.2718
     92  CB        15.9880   72.0490   33.7890 C.3   106  TYR106      0.0548
     93  CG        15.7970   73.5090   34.2620 C.ar  106  TYR106     -0.0200
     94  CD1       15.1180   73.8020   35.4480 C.ar  106  TYR106     -0.0009
     95  CD2       16.2640   74.5920   33.5010 C.ar  106  TYR106     -0.0009
     96  CE1       14.9240   75.1150   35.8750 C.ar  106  TYR106      0.0417
     97  CE2       16.0780   75.9070   33.9220 C.ar  106  TYR106      0.0417
     98  CZ        15.4100   76.1590   35.1120 C.ar  106  TYR106      0.1957
     99  OH        15.2150   77.4520   35.5380 O.3   106  TYR106     -0.2866
    100  N         16.0760   73.1140   30.7320 N.am  107  ILE107     -0.1966
    101  CA        15.9510   74.2300   29.8080 C.3   107  ILE107      0.1727
    102  C         14.6530   74.1310   29.0100 C.2   107  ILE107      0.2617
    103  O         14.1440   75.1350   28.5220 O.2   107  ILE107     -0.2715
    104  CB        17.1460   74.3210   28.8200 C.3   107  ILE107      0.0290
    105  CG1       17.5610   72.9190   28.3160 C.3   107  ILE107      0.0022
    106  CG2       18.3080   75.0700   29.4470 C.3   107  ILE107      0.0023
    107  CD1       17.4820   72.7010   26.7460 C.3   107  ILE107      0.0001
    108  N         14.1390   72.9290   28.8030 N.am  108  THR108     -0.1937
    109  CA        13.0290   72.7920   27.8870 C.3   108  THR108      0.2028
    110  C         11.7270   73.0020   28.6540 C.2   108  THR108      0.2642
    111  O         10.6540   73.1390   28.0830 O.2   108  THR108     -0.2714
    112  CB        13.1000   71.4290   27.2180 C.3   108  THR108      0.1808
    113  OG1       11.9610   70.6500   27.5600 O.3   108  THR108     -0.2208
    114  CG2       14.2270   70.6410   27.7930 C.3   108  THR108      0.0379
    115  N         11.8250   73.0320   29.9740 N.am  109  ASP109     -0.1971
    116  CA        10.6410   73.0530   30.8070 C.3   109  ASP109      0.1709
    117  C         10.0480   71.6370   30.9590 C.2   109  ASP109      0.2293
    118  O          8.8610   71.4110   30.7320 O.2   109  ASP109     -0.2864
    119  CB         9.6450   74.0550   30.2300 C.3   109  ASP109      0.1436
    120  CG         9.0390   74.9470   31.3030 C.2   109  ASP109      0.3671
    121  OD1        9.3160   74.7110   32.5050 O.co2 109  ASP109     -0.2456
    122  OD2        8.2420   75.8790   31.0460 O.co2 109  ASP109     -0.2456
    123  N          9.6410   69.3960   29.3820 N.3   111  THR111     -0.1218
    124  CA         8.8910   68.9140   28.2210 C.3   111  THR111      0.1862
    125  C          9.1770   67.4520   27.9320 C.2   111  THR111      0.2287
    126  O          8.2790   66.6340   27.7800 O.2   111  THR111     -0.2866
    127  CB         9.2770   69.7000   26.9910 C.3   111  THR111      0.1770
    128  OG1        9.2700   71.0980   27.2980 O.3   111  THR111     -0.2211
    129  CG2        8.2390   69.5290   25.9050 C.3   111  THR111      0.0375
    130  N         17.3120   86.9410   19.6380 N.3   234  SER234     -0.1217
    131  CA        18.1960   86.4550   20.7040 C.3   234  SER234      0.1889
    132  C         19.6520   86.8810   20.4600 C.2   234  SER234      0.2288
    133  O         20.4640   87.1090   21.4040 O.2   234  SER234     -0.2866
    134  CB        18.1050   84.9360   20.7950 C.3   234  SER234      0.2089
    135  OG        16.7900   84.5020   21.1070 O.3   234  SER234     -0.2183
@<TRIPOS>BOND
     1    66    64    1
     2     8     7    1
     3     1     2    1
     4     6     7    1
     5     6     5    1
     6    64    65    1
     7    64    63    2
     8     2     5    1
     9     2     3    1
    10     3     4    2
    11    63    62    1
    12    78    76    1
    13    56    57    1
    14    60    57    1
    15    60    61    1
    16    62    61    1
    17     9    10    1
    18    16    14    1
    19    77    76    1
    20    57    58    1
    21    76    75    1
    22    24    22    1
    23    75    72    1
    24    14    13    1
    25    10    13    1
    26    10    11    1
    27    21    22    1
    28    21    18    1
    29    17    11   am
    30    17    18    1
    31    13    15    1
    32    58    67   am
    33    58    59    2
    34    72    71    1
    35    72    73    1
    36    22    23    1
    37    11    12    2
    38    25    26    1
    39    18    19    1
    40    67    68    1
    41    19    20    2
    42    29    26    1
    43    29    30    1
    44    74    73    2
    45    31    30   ar
    46    73    79   am
    47    26    27    1
    48    30    32   ar
    49    68    69    1
    50    79    80    1
    51    69    70    2
    52    27    33   am
    53    27    28    2
    54   130   131    1
    55    33    34    1
    56    80    81    1
    57    80    83    1
    58   132   131    1
    59   132   133    2
    60   131   134    1
    61   134   135    1
    62    81    82    2
    63    34    37    1
    64    34    35    1
    65    83    84    1
    66    37    38    1
    67    35    36    2
    68    43    40   ar
    69    43    45   ar
    70    84    85    1
    71    38    40   ar
    72    38    39   ar
    73    47    48    1
    74    40    42   ar
    75    45    46   ar
    76    85    86    2
    77    85    87   am
    78    39    41   ar
    79    48    51    1
    80    48    49    1
    81    52    51    1
    82    52    53    1
    83    55    53   ar
    84    42    41   ar
    85    42    44   ar
    86    46    44   ar
    87    53    54   ar
    88    49    50    2
    89   129   127    1
    90   107   105    1
    91   127   128    1
    92   127   124    1
    93   112   113    1
    94   112   114    1
    95   112   109    1
    96   126   125    2
    97   109   110    1
    98   109   108    1
    99   125   124    1
   100   111   110    2
   101   124   123    1
   102   105   104    1
   103   103   102    2
   104   110   115   am
   105   108   102   am
   106   104   106    1
   107   104   101    1
   108   102   101    1
   109   101   100    1
   110   115   116    1
   111   119   116    1
   112   119   120    1
   113   118   117    2
   114   100    90   am
   115   116   117    1
   116   122   120   ar
   117   120   121   ar
   118    90    91    2
   119    90    89    1
   120    88    89    1
   121    89    92    1
   122    95    97   ar
   123    95    93   ar
   124    92    93    1
   125    97    98   ar
   126    93    94   ar
   127    98    99    1
   128    98    96   ar
   129    94    96   ar
