@<TRIPOS>MOLECULE
tmp/1ol2D00.pdb
 137 133 0 0 0
SMALL
GASTEIGER

@<TRIPOS>ATOM
      1  N          9.5890   77.2560   11.5770 N.3    36  MET36      -0.1245
      2  CA         9.7400   76.5580   12.8500 C.3    36  MET36       0.1570
      3  C         11.2250   76.3560   13.1300 C.2    36  MET36       0.2261
      4  O         11.6830   76.2990   14.2630 O.2    36  MET36      -0.2867
      5  CB         9.0260   75.2140   12.7980 C.3    36  MET36       0.0387
      6  CG         7.5630   75.3420   12.4870 C.3    36  MET36       0.0595
      7  SD         6.7420   73.7530   12.5430 S.3    36  MET36      -0.1393
      8  CE         5.1380   74.1400   11.7520 C.3    36  MET36       0.0692
      9  N         12.7310   79.5090   14.7160 N.3    39  ILE39      -0.1231
     10  CA        12.3500   79.5450   16.1260 C.3    39  ILE39       0.1692
     11  C         13.2780   78.6490   16.9050 C.2    39  ILE39       0.2591
     12  O         13.6840   78.9910   18.0240 O.2    39  ILE39      -0.2718
     13  CB        10.8710   79.1010   16.2830 C.3    39  ILE39       0.0266
     14  CG1        9.9650   80.0660   15.5040 C.3    39  ILE39       0.0019
     15  CG2       10.4540   79.0850   17.7090 C.3    39  ILE39       0.0020
     16  CD1        8.5080   79.6370   15.3380 C.3    39  ILE39       0.0001
     17  N         13.6460   77.5130   16.3120 N.am   40  LEU40      -0.1980
     18  CA        14.4080   76.4780   17.0330 C.3    40  LEU40       0.1596
     19  C         15.7990   76.9870   17.2560 C.2    40  LEU40       0.2287
     20  O         16.3250   76.9150   18.3750 O.2    40  LEU40      -0.2864
     21  CB        14.5280   75.1920   16.2350 C.3    40  LEU40       0.0297
     22  CG        15.4360   74.1350   16.8620 C.3    40  LEU40       0.0022
     23  CD1       14.7670   73.6460   18.1190 C.3    40  LEU40       0.0001
     24  CD2       15.6790   72.9570   15.9210 C.3    40  LEU40       0.0001
     25  N         16.8280   79.9040   17.0490 N.3    42  ASP42      -0.1225
     26  CA        16.8900   81.1250   17.8090 C.3    42  ASP42       0.1805
     27  C         16.7950   80.8150   19.2870 C.2    42  ASP42       0.2597
     28  O         17.4280   81.4590   20.1120 O.2    42  ASP42      -0.2718
     29  CB        15.8630   82.1670   17.3570 C.3    42  ASP42       0.1424
     30  CG        15.8550   83.3920   18.2830 C.2    42  ASP42       0.3668
     31  OD1       16.6490   84.3400   18.0560 O.co2  42  ASP42      -0.2456
     32  OD2       15.1400   83.4470   19.3070 O.co2  42  ASP42      -0.2456
     33  N         16.0880   79.7530   19.6220 N.am   43  TRP43      -0.1976
     34  CA        16.0260   79.3120   21.0190 C.3    43  TRP43       0.1640
     35  C         17.3670   78.7480   21.4980 C.2    43  TRP43       0.2290
     36  O         17.6770   78.7290   22.6940 O.2    43  TRP43      -0.2864
     37  CB        14.9000   78.2720   21.1370 C.3    43  TRP43       0.0576
     38  CG        14.8550   77.5630   22.4170 C.ar   43  TRP43       0.0006
     39  CD1       14.4640   78.0660   23.6210 C.ar   43  TRP43       0.0946
     40  CD2       15.2750   76.2150   22.6630 C.ar   43  TRP43       0.0152
     41  NE1       14.6570   77.1270   24.6080 N.ar   43  TRP43      -0.2442
     42  CE2       15.0990   75.9630   24.0280 C.ar   43  TRP43       0.0810
     43  CE3       15.7280   75.1810   21.8590 C.ar   43  TRP43       0.0012
     44  CZ2       15.3840   74.7490   24.5900 C.ar   43  TRP43       0.0191
     45  CZ3       16.0350   73.9850   22.4350 C.ar   43  TRP43       0.0001
     46  CH2       15.8710   73.7770   23.7780 C.ar   43  TRP43       0.0015
     47  N         19.5570   81.4990   22.8750 N.3    46  GLU46      -0.1245
     48  CA        19.2830   81.6030   24.3050 C.3    46  GLU46       0.1567
     49  C         20.0130   80.5300   25.1370 C.2    46  GLU46       0.2260
     50  O         20.5620   80.8070   26.2370 O.2    46  GLU46      -0.2867
     51  CB        17.7720   81.5240   24.6040 C.3    46  GLU46       0.0388
     52  CG        16.9130   82.6800   24.0910 C.3    46  GLU46       0.1160
     53  CD        15.5920   82.8490   24.8330 C.2    46  GLU46       0.3649
     54  OE1       15.5280   82.6720   26.0660 O.co2  46  GLU46      -0.2457
     55  OE2       14.6010   83.2300   24.1820 O.co2  46  GLU46      -0.2457
     56  N          6.3210   68.4100   14.4160 N.3    76  ARG76      -0.1231
     57  CA         6.6260   69.6800   15.0350 C.3    76  ARG76       0.1694
     58  C          6.8520   69.5440   16.5270 C.2    76  ARG76       0.2592
     59  O          7.7870   70.1370   17.0650 O.2    76  ARG76      -0.2718
     60  CB         5.4950   70.6460   14.7040 C.3    76  ARG76       0.0321
     61  CG         4.1620   70.3080   15.3470 C.3    76  ARG76       0.0489
     62  CD         3.0340   71.1990   14.8760 C.3    76  ARG76       0.2205
     63  NE         2.8660   71.0990   13.4320 N.pl3  76  ARG76      -0.0865
     64  CZ         2.3120   72.0430   12.6880 C.cat  76  ARG76       0.5346
     65  NH1        1.9150   73.1660   13.2620 N.pl3  76  ARG76       0.1354
     66  NH2        2.1790   71.8730   11.3770 N.pl3  76  ARG76       0.1354
     67  N          6.0310   68.7450   17.2060 N.am   77  GLY77      -0.1957
     68  CA         6.2170   68.5410   18.6340 C.3    77  GLY77       0.1869
     69  C          7.5140   67.8080   19.0100 C.2    77  GLY77       0.2309
     70  O          7.8990   67.7620   20.1860 O.2    77  GLY77      -0.2863
     71  N         10.3890   68.4640   17.1600 N.3    79  LEU79      -0.1231
     72  CA        11.4440   69.2760   16.5430 C.3    79  LEU79       0.1693
     73  C         12.4250   69.8080   17.5940 C.2    79  LEU79       0.2591
     74  O         13.6020   69.9420   17.3200 O.2    79  LEU79      -0.2718
     75  CB        10.8700   70.4160   15.6760 C.3    79  LEU79       0.0284
     76  CG        11.8580   71.4080   15.0470 C.3    79  LEU79       0.0019
     77  CD1       12.9220   70.7250   14.2250 C.3    79  LEU79       0.0001
     78  CD2       11.1480   72.4170   14.1390 C.3    79  LEU79       0.0001
     79  N         11.9400   70.0740   18.8030 N.am   80  GLN80      -0.1979
     80  CA        12.7220   70.7080   19.8620 C.3    80  GLN80       0.1601
     81  C         13.4870   69.6230   20.5550 C.2    80  GLN80       0.2287
     82  O         14.5960   69.8500   20.9900 O.2    80  GLN80      -0.2864
     83  CB        11.8230   71.4570   20.8540 C.3    80  GLN80       0.0394
     84  CG        12.5110   72.0780   22.0830 C.3    80  GLN80       0.0908
     85  CD        11.5640   72.9300   22.9520 C.2    80  GLN80       0.2608
     86  OE1       10.3510   72.7310   22.9270 O.2    80  GLN80      -0.2717
     87  NE2       12.1170   73.8730   23.7150 N.am   80  GLN80      -0.0878
     88  N         15.6340   70.6060   31.3850 N.3   106  TYR106     -0.1227
     89  CA        15.0860   71.7050   32.1490 C.3   106  TYR106      0.1736
     90  C         14.8340   72.8800   31.2290 C.2   106  TYR106      0.2595
     91  O         13.7740   73.4800   31.3130 O.2   106  TYR106     -0.2718
     92  CB        15.9950   72.0880   33.3230 C.3   106  TYR106      0.0548
     93  CG        15.5900   73.3990   33.9900 C.ar  106  TYR106     -0.0200
     94  CD1       14.6710   73.4080   35.0460 C.ar  106  TYR106     -0.0009
     95  CD2       16.0840   74.6280   33.5230 C.ar  106  TYR106     -0.0009
     96  CE1       14.2930   74.5990   35.6490 C.ar  106  TYR106      0.0417
     97  CE2       15.6900   75.8300   34.1160 C.ar  106  TYR106      0.0417
     98  CZ        14.7990   75.8060   35.1820 C.ar  106  TYR106      0.1957
     99  OH        14.3980   76.9760   35.7920 O.3   106  TYR106     -0.2866
    100  N         15.7640   73.1900   30.3310 N.am  107  ILE107     -0.1966
    101  CA        15.5320   74.2630   29.3550 C.3   107  ILE107      0.1727
    102  C         14.3550   74.0490   28.4140 C.2   107  ILE107      0.2617
    103  O         13.9730   74.9800   27.7300 O.2   107  ILE107     -0.2715
    104  CB        16.7820   74.5430   28.4810 C.3   107  ILE107      0.0290
    105  CG1       17.4540   73.2360   28.0510 C.3   107  ILE107      0.0022
    106  CG2       17.7340   75.4440   29.2030 C.3   107  ILE107      0.0023
    107  CD1       17.7820   73.1530   26.5490 C.3   107  ILE107      0.0001
    108  N         13.7970   72.8430   28.3120 N.am  108  THR108     -0.1937
    109  CA        12.5950   72.6620   27.4960 C.3   108  THR108      0.2028
    110  C         11.2700   72.8950   28.2490 C.2   108  THR108      0.2642
    111  O         10.2130   72.6330   27.6950 O.2   108  THR108     -0.2714
    112  CB        12.5570   71.2360   26.9610 C.3   108  THR108      0.1808
    113  OG1       12.6220   70.3280   28.0640 O.3   108  THR108     -0.2208
    114  CG2       13.7640   70.8970   26.1160 C.3   108  THR108      0.0379
    115  N         11.3300   73.2770   29.5210 N.am  109  ASP109     -0.1957
    116  CA        10.1970   73.2150   30.4530 C.3   109  ASP109      0.1840
    117  C          9.5960   71.8010   30.5360 C.2   109  ASP109      0.2622
    118  O          8.4020   71.6060   30.3150 O.2   109  ASP109     -0.2715
    119  CB         9.1390   74.2830   30.1010 C.3   109  ASP109      0.1450
    120  CG         8.3440   74.8000   31.3220 C.2   109  ASP109      0.3671
    121  OD1        8.5390   74.3420   32.4770 O.co2 109  ASP109     -0.2456
    122  OD2        7.4700   75.6820   31.2170 O.co2 109  ASP109     -0.2456
    123  N         10.4300   70.8200   30.8570 N.am  110  ASP110     -0.1957
    124  CA         9.9830   69.4470   31.0130 C.3   110  ASP110      0.1840
    125  C          9.1120   68.9150   29.8680 C.2   110  ASP110      0.2622
    126  O          8.2590   68.0580   30.1100 O.2   110  ASP110     -0.2715
    127  CB         9.1640   69.3190   32.2920 C.3   110  ASP110      0.1450
    128  CG        10.0160   69.2100   33.5360 C.2   110  ASP110      0.3671
    129  OD1       10.9760   68.4040   33.5340 O.co2 110  ASP110     -0.2456
    130  OD2        9.7560   69.8640   34.5720 O.co2 110  ASP110     -0.2456
    131  N          9.3150   69.3850   28.6370 N.am  111  THR111     -0.1951
    132  CA         8.5280   68.8650   27.5240 C.3   111  THR111      0.1897
    133  C          8.8940   67.3950   27.2740 C.2   111  THR111      0.2313
    134  O          8.0710   66.5780   26.8380 O.2   111  THR111     -0.2863
    135  CB         8.8100   69.6450   26.2500 C.3   111  THR111      0.1794
    136  OG1        8.6230   71.0520   26.4260 O.3   111  THR111     -0.2208
    137  CG2        7.8300   69.2540   25.1580 C.3   111  THR111      0.0378
@<TRIPOS>BOND
     1    66    64    1
     2     1     2    1
     3     8     7    1
     4     6     7    1
     5     6     5    1
     6    64    65    1
     7    64    63    2
     8     5     2    1
     9     2     3    1
    10     3     4    2
    11    63    62    1
    12    78    76    1
    13    77    76    1
    14    56    57    1
    15    60    57    1
    16    60    61    1
    17     9    10    1
    18    62    61    1
    19    57    58    1
    20    76    75    1
    21    16    14    1
    22    14    13    1
    23    75    72    1
    24    24    22    1
    25    10    13    1
    26    10    11    1
    27    21    22    1
    28    21    18    1
    29    13    15    1
    30    17    11   am
    31    17    18    1
    32    58    59    2
    33    58    67   am
    34    72    71    1
    35    72    73    1
    36    22    23    1
    37    11    12    2
    38    18    19    1
    39    25    26    1
    40    67    68    1
    41    19    20    2
    42    74    73    2
    43    29    26    1
    44    29    30    1
    45    73    79   am
    46    26    27    1
    47    31    30   ar
    48    30    32   ar
    49    68    69    1
    50    79    80    1
    51    69    70    2
    52    27    33   am
    53    27    28    2
    54    33    34    1
    55    80    81    1
    56    80    83    1
    57    81    82    2
    58    83    84    1
    59    34    37    1
    60    34    35    1
    61    37    38    1
    62    35    36    2
    63    43    45   ar
    64    43    40   ar
    65    84    85    1
    66    38    40   ar
    67    38    39   ar
    68    45    46   ar
    69    40    42   ar
    70    47    48    1
    71    86    85    2
    72    85    87   am
    73    39    41   ar
    74    46    44   ar
    75    42    44   ar
    76    42    41   ar
    77    52    51    1
    78    52    53    1
    79    55    53   ar
    80    48    51    1
    81    48    49    1
    82    53    54   ar
    83    49    50    2
    84   137   135    1
    85   114   112    1
    86   135   136    1
    87   135   132    1
    88   107   105    1
    89   134   133    2
    90   112   109    1
    91   112   113    1
    92   133   132    1
    93   109   110    1
    94   109   108    1
    95   132   131    1
    96   111   110    2
    97   103   102    2
    98   105   104    1
    99   110   115   am
   100   108   102   am
   101   102   101    1
   102   104   106    1
   103   104   101    1
   104   131   125   am
   105   101   100    1
   106   115   116    1
   107   125   126    2
   108   125   124    1
   109   119   116    1
   110   119   120    1
   111   118   117    2
   112   100    90   am
   113   116   117    1
   114   117   123   am
   115   123   124    1
   116   124   127    1
   117   122   120   ar
   118    90    91    2
   119    90    89    1
   120   120   121   ar
   121    88    89    1
   122    89    92    1
   123   127   128    1
   124    92    93    1
   125    95    93   ar
   126    95    97   ar
   127   129   128   ar
   128   128   130   ar
   129    93    94   ar
   130    97    98   ar
   131    94    96   ar
   132    98    96   ar
   133    98    99    1
