@<TRIPOS>MOLECULE
tmp/1oltA00.pdb
 132 126 0 0 0
SMALL
GASTEIGER

@<TRIPOS>ATOM
      1  N         20.2720   49.5610   17.2200 N.3    58  PHE58      -0.1227
      2  CA        21.7320   49.7400   17.3700 C.3    58  PHE58       0.1736
      3  C         22.1230   51.1970   17.5990 C.2    58  PHE58       0.2596
      4  O         23.2510   51.4880   17.9820 O.2    58  PHE58      -0.2718
      5  CB        22.4790   49.2130   16.1220 C.3    58  PHE58       0.0547
      6  CG        22.0980   49.9350   14.8610 C.ar   58  PHE58      -0.0202
      7  CD1       22.5620   51.2140   14.6020 C.ar   58  PHE58      -0.0042
      8  CD2       21.2260   49.3780   13.9820 C.ar   58  PHE58      -0.0042
      9  CE1       22.1510   51.9060   13.4690 C.ar   58  PHE58      -0.0003
     10  CE2       20.7940   50.0810   12.8500 C.ar   58  PHE58      -0.0003
     11  CZ        21.2650   51.3590   12.6100 C.ar   58  PHE58      -0.0000
     12  N         21.2110   52.1430   17.3590 N.am   59  CYS59      -0.1956
     13  CA        21.6410   53.5000   17.1290 C.3    59  CYS59       0.1843
     14  C         22.0590   54.2770   18.3520 C.2    59  CYS59       0.2626
     15  O         21.3350   54.3470   19.2850 O.2    59  CYS59      -0.2714
     16  CB        20.5780   54.3200   16.3200 C.3    59  CYS59       0.0997
     17  SG        21.0860   55.9980   15.9840 S.3    59  CYS59      -0.0797
     18  N         23.2590   54.9170   18.2600 N.am   60  GLY60      -0.1940
     19  CA        23.8590   55.6950   19.3030 C.3    60  GLY60       0.2014
     20  C         23.8800   57.1850   18.9980 C.2    60  GLY60       0.2639
     21  O         24.4720   57.9480   19.7280 O.2    60  GLY60      -0.2714
     22  N         23.1900   57.6310   17.9440 N.am   61  CYS61      -0.1967
     23  CA        23.2460   59.0500   17.5100 C.3    61  CYS61       0.1712
     24  C         22.3730   59.9430   18.4340 C.2    61  CYS61       0.2296
     25  O         21.5180   59.4080   19.1580 O.2    61  CYS61      -0.2864
     26  CB        22.7940   59.1890   16.0520 C.3    61  CYS61       0.0983
     27  SG        23.5820   58.0500   14.8760 S.3    61  CYS61      -0.0798
     28  N         22.6560   63.5400    4.7860 N.3   135  GLU135     -0.1245
     29  CA        22.4530   62.1280    5.0700 C.3   135  GLU135      0.1567
     30  C         21.0300   61.6960    4.8650 C.2   135  GLU135      0.2260
     31  O         20.0920   62.4360    5.1590 O.2   135  GLU135     -0.2867
     32  CB        22.9040   61.8380    6.4910 C.3   135  GLU135      0.0388
     33  CG        24.3140   62.3840    6.7670 C.3   135  GLU135      0.1160
     34  CD        24.9130   61.9570    8.0610 C.2   135  GLU135      0.3649
     35  OE1       24.8580   60.7130    8.3430 O.co2 135  GLU135     -0.2457
     36  OE2       25.4590   62.8620    8.7870 O.co2 135  GLU135     -0.2457
     37  N         22.5360   55.5990    4.9130 N.3   160  GLY160     -0.1225
     38  CA        22.6720   54.4970    5.8290 C.3   160  GLY160      0.1811
     39  C         22.1580   53.2050    5.2200 C.2   160  GLY160      0.2280
     40  O         21.0520   53.1640    4.7220 O.2   160  GLY160     -0.2866
     41  N         23.6890   49.8570    6.8060 N.3   162  GLN162     -0.1245
     42  CA        23.9960   49.0560    7.9630 C.3   162  GLN162      0.1566
     43  C         24.2990   47.6110    7.6210 C.2   162  GLN162      0.2260
     44  O         25.4350   47.1500    7.8640 O.2   162  GLN162     -0.2867
     45  CB        22.9530   49.1990    9.0960 C.3   162  GLN162      0.0367
     46  CG        22.2520   50.5570    9.1480 C.3   162  GLN162      0.0905
     47  CD        23.1450   51.7610    9.2010 C.2   162  GLN162      0.2608
     48  OE1       22.6460   52.8730    9.2080 O.2   162  GLN162     -0.2717
     49  NE2       24.4250   51.5680    9.2670 N.am  162  GLN162     -0.0878
     50  N         15.4640   47.4800   11.4480 N.3   174  ARG174     -0.1245
     51  CA        15.8030   48.2750   10.2960 C.3   174  ARG174      0.1563
     52  C         15.5190   47.5100    8.9840 C.2   174  ARG174      0.2260
     53  O         16.3340   47.4530    8.0690 O.2   174  ARG174     -0.2867
     54  CB        17.2430   48.7800   10.2990 C.3   174  ARG174      0.0307
     55  CG        17.3800   50.0530    9.3490 C.3   174  ARG174      0.0489
     56  CD        18.6940   50.3270    9.1120 C.3   174  ARG174      0.2205
     57  NE        18.9020   51.3270    8.1030 N.pl3 174  ARG174     -0.0865
     58  CZ        19.2220   52.5980    8.3000 C.cat 174  ARG174      0.5346
     59  NH1       19.2720   53.1350    9.5180 N.pl3 174  ARG174      0.1354
     60  NH2       19.4960   53.3380    7.2250 N.pl3 174  ARG174      0.1354
     61  N         26.9170   53.9150    4.7220 N.3   199  ASP199     -0.1239
     62  CA        27.2940   53.4060    6.0250 C.3   199  ASP199      0.1674
     63  C         26.9140   51.9390    6.1870 C.2   199  ASP199      0.2266
     64  O         25.7920   51.5220    5.8160 O.2   199  ASP199     -0.2867
     65  CB        26.5980   54.1460    7.1570 C.3   199  ASP199      0.1410
     66  CG        26.8720   55.6230    7.1880 C.2   199  ASP199      0.3668
     67  OD1       27.9310   56.1070    6.7160 O.co2 199  ASP199     -0.2456
     68  OD2       26.0470   56.3950    7.7660 O.co2 199  ASP199     -0.2456
     69  N         27.5900   48.7330    9.2610 N.3   201  ILE201     -0.1245
     70  CA        28.0540   48.4020   10.6180 C.3   201  ILE201      0.1561
     71  C         28.3660   46.9260   10.7420 C.2   201  ILE201      0.2260
     72  O         27.5700   46.0590   10.3220 O.2   201  ILE201     -0.2867
     73  CB        27.0310   48.7860   11.6890 C.3   201  ILE201      0.0252
     74  CG1       26.5880   50.2350   11.5640 C.3   201  ILE201      0.0019
     75  CG2       27.5540   48.4710   13.0730 C.3   201  ILE201      0.0019
     76  CD1       25.3630   50.5660   12.4940 C.3   201  ILE201      0.0001
     77  N         31.5380   50.9720   10.2590 N.3   230  PHE230     -0.1227
     78  CA        31.7130   51.2310   11.6870 C.3   230  PHE230      0.1736
     79  C         31.6610   49.9750   12.4780 C.2   230  PHE230      0.2595
     80  O         30.8820   49.0490   12.2010 O.2   230  PHE230     -0.2718
     81  CB        30.5860   52.1620   12.1740 C.3   230  PHE230      0.0547
     82  CG        30.5330   53.4600   11.4200 C.ar  230  PHE230     -0.0202
     83  CD1       31.5880   54.3580   11.5070 C.ar  230  PHE230     -0.0042
     84  CD2       29.4550   53.7890   10.6440 C.ar  230  PHE230     -0.0042
     85  CE1       31.5590   55.5970   10.8400 C.ar  230  PHE230     -0.0003
     86  CE2       29.4020   55.0470    9.9650 C.ar  230  PHE230     -0.0003
     87  CZ        30.4700   55.9310   10.0540 C.ar  230  PHE230     -0.0000
     88  N         32.4880   49.9170   13.4670 N.am  231  ASN231     -0.1960
     89  CA        32.4380   48.8600   14.4580 C.3   231  ASN231      0.1819
     90  C         31.2280   49.1600   15.4080 C.2   231  ASN231      0.2621
     91  O         31.1040   50.2670   15.9220 O.2   231  ASN231     -0.2715
     92  CB        33.7370   48.8560   15.2830 C.3   231  ASN231      0.1195
     93  CG        33.7190   47.7930   16.3780 C.2   231  ASN231      0.2630
     94  OD1       33.3620   46.6640   16.1410 O.2   231  ASN231     -0.2716
     95  ND2       34.0590   48.1650   17.5400 N.am  231  ASN231     -0.0877
     96  N         30.3680   48.1820   15.6540 N.am  232  TYR232     -0.1960
     97  CA        29.1750   48.4610   16.4870 C.3   232  TYR232      0.1771
     98  C         29.6080   48.8220   17.8960 C.2   232  TYR232      0.2619
     99  O         30.2310   48.0460   18.5700 O.2   232  TYR232     -0.2715
    100  CB        28.2190   47.2610   16.4760 C.3   232  TYR232      0.0574
    101  CG        27.0460   47.4050   17.4030 C.ar  232  TYR232     -0.0198
    102  CD1       26.2890   48.5650   17.4240 C.ar  232  TYR232     -0.0009
    103  CD2       26.7390   46.4000   18.2950 C.ar  232  TYR232     -0.0009
    104  CE1       25.2040   48.6790   18.2940 C.ar  232  TYR232      0.0417
    105  CE2       25.7250   46.5280   19.1920 C.ar  232  TYR232      0.0417
    106  CZ        24.9280   47.6660   19.1620 C.ar  232  TYR232      0.1957
    107  OH        23.9350   47.7800   20.0900 O.3   232  TYR232     -0.2866
    108  N         29.2030   49.9900   18.3610 N.am  233  ALA233     -0.1977
    109  CA        29.4420   50.3730   19.7570 C.3   233  ALA233      0.1597
    110  C         28.1750   50.0910   20.5780 C.2   233  ALA233      0.2287
    111  O         27.1180   50.7320   20.3590 O.2   233  ALA233     -0.2864
    112  CB        29.7530   51.8500   19.8400 C.3   233  ALA233      0.0319
    113  N         22.2800   53.9590   25.7120 N.3   239  PHE239     -0.1241
    114  CA        21.3980   53.9540   24.4940 C.3   239  PHE239      0.1605
    115  C         20.3490   52.9330   24.6840 C.2   239  PHE239      0.2264
    116  O         20.5920   51.7840   24.4430 O.2   239  PHE239     -0.2867
    117  CB        22.2050   53.6440   23.2510 C.3   239  PHE239      0.0534
    118  CG        23.4240   54.5220   23.1010 C.ar  239  PHE239     -0.0203
    119  CD1       23.2880   55.8860   22.9720 C.ar  239  PHE239     -0.0042
    120  CD2       24.6600   53.9940   23.0750 C.ar  239  PHE239     -0.0042
    121  CE1       24.4230   56.7050   22.8550 C.ar  239  PHE239     -0.0003
    122  CE2       25.7960   54.8030   22.9560 C.ar  239  PHE239     -0.0003
    123  CZ        25.6380   56.1720   22.8270 C.ar  239  PHE239     -0.0000
    124  N         19.2440   49.7970   22.4830 N.3   242  GLN242     -0.1245
    125  CA        20.1550   48.6630   22.3680 C.3   242  GLN242      0.1566
    126  C         19.8450   47.5650   23.3630 C.2   242  GLN242      0.2260
    127  O         20.3010   46.4090   23.1890 O.2   242  GLN242     -0.2867
    128  CB        21.6080   49.1240   22.4990 C.3   242  GLN242      0.0367
    129  CG        22.0540   50.1700   21.4850 C.3   242  GLN242      0.0905
    130  CD        23.5230   50.5950   21.7800 C.2   242  GLN242      0.2608
    131  OE1       23.9830   50.3270   22.8600 O.2   242  GLN242     -0.2717
    132  NE2       24.2370   51.1530   20.7970 N.am  242  GLN242     -0.0878
@<TRIPOS>BOND
     1    40    39    2
     2    61    62    1
     3    28    29    1
     4    30    29    1
     5    30    31    2
     6    37    38    1
     7    29    32    1
     8    39    38    1
     9    64    63    2
    10    62    63    1
    11    62    65    1
    12    32    33    1
    13    67    66   ar
    14    33    34    1
    15    41    42    1
    16    65    66    1
    17    66    68   ar
    18    60    58    1
    19    43    44    2
    20    43    42    1
    21    42    45    1
    22    34    35   ar
    23    34    36   ar
    24    53    52    2
    25    57    58    2
    26    57    56    1
    27    58    59    1
    28    52    51    1
    29    45    46    1
    30    56    55    1
    31    46    47    1
    32    47    48    2
    33    47    49   am
    34    69    70    1
    35    55    54    1
    36    86    87   ar
    37    86    84   ar
    38    87    85   ar
    39    77    78    1
    40    51    54    1
    41    51    50    1
    42    72    71    2
    43    70    71    1
    44    70    73    1
    45    84    82   ar
    46    85    83   ar
    47    82    83   ar
    48    82    81    1
    49    74    73    1
    50    74    76    1
    51    78    81    1
    52    78    79    1
    53    73    75    1
    54    80    79    2
    55    79    88   am
    56    11    10   ar
    57    11     9   ar
    58    10     8   ar
    59    88    89    1
    60     9     7   ar
    61     8     6   ar
    62    89    92    1
    63    89    90    1
    64     7     6   ar
    65     6     5    1
    66    27    26    1
    67    92    93    1
    68    90    96   am
    69    90    91    2
    70    96    97    1
    71    17    16    1
    72    26    23    1
    73     5     2    1
    74    94    93    2
    75    16    13    1
    76    93    95   am
    77   100    97    1
    78   100   101    1
    79    97    98    1
    80    13    12    1
    81    13    14    1
    82     1     2    1
    83    12     3   am
    84     2     3    1
    85   101   102   ar
    86   101   103   ar
    87   102   104   ar
    88    23    22    1
    89    23    24    1
    90     3     4    2
    91    98   108   am
    92    98    99    2
    93    22    20   am
    94    18    14   am
    95    18    19    1
    96   104   106   ar
    97   103   105   ar
    98    14    15    2
    99   108   109    1
   100    24    25    2
   101    20    19    1
   102    20    21    2
   103   106   105   ar
   104   106   107    1
   105   109   112    1
   106   109   110    1
   107   111   110    2
   108   132   130   am
   109   129   130    1
   110   129   128    1
   111   130   131    2
   112   125   124    1
   113   125   128    1
   114   125   126    1
   115   123   121   ar
   116   123   122   ar
   117   121   119   ar
   118   122   120   ar
   119   119   118   ar
   120   120   118   ar
   121   118   117    1
   122   127   126    2
   123   117   114    1
   124   116   115    2
   125   114   115    1
   126   114   113    1
