@<TRIPOS>MOLECULE
tmp/1oltA01.pdb
 107 102 0 0 0
SMALL
GASTEIGER

@<TRIPOS>ATOM
      1  N         27.2010   73.2850    9.8170 N.3    46  TYR46      -0.1241
      2  CA        26.5880   71.9950   10.1550 C.3    46  TYR46       0.1605
      3  C         25.1940   72.2740   10.7520 C.2    46  TYR46       0.2264
      4  O         25.0780   73.1180   11.6170 O.2    46  TYR46      -0.2867
      5  CB        27.4330   71.2100   11.1810 C.3    46  TYR46       0.0534
      6  CG        26.7310   69.9680   11.5840 C.ar   46  TYR46      -0.0201
      7  CD1       26.7270   68.8600   10.7610 C.ar   46  TYR46      -0.0009
      8  CD2       25.9910   69.9080   12.7720 C.ar   46  TYR46      -0.0009
      9  CE1       25.9540   67.6990   11.1240 C.ar   46  TYR46       0.0417
     10  CE2       25.2750   68.7450   13.1450 C.ar   46  TYR46       0.0417
     11  CZ        25.2610   67.6700   12.3180 C.ar   46  TYR46       0.1957
     12  OH        24.5150   66.5600   12.6190 O.3    46  TYR46      -0.2866
     13  N         22.0410   70.0730   12.5930 N.3    48  HIS48      -0.1241
     14  CA        21.5830   68.8250   13.1510 C.3    48  HIS48       0.1621
     15  C         20.0520   68.7690   12.9660 C.2    48  HIS48       0.2264
     16  O         19.3560   69.6950   13.3350 O.2    48  HIS48      -0.2867
     17  CB        21.8670   68.7010   14.6190 C.3    48  HIS48       0.0745
     18  CG        21.8910   67.2780   15.0720 C.ar   48  HIS48       0.0817
     19  ND1       22.9090   66.4210   14.7210 N.ar   48  HIS48      -0.2268
     20  CD2       21.0270   66.5600   15.8390 C.ar   48  HIS48       0.1154
     21  CE1       22.6820   65.2380   15.2840 C.ar   48  HIS48       0.1986
     22  NE2       21.5480   65.3010   15.9660 N.ar   48  HIS48      -0.2212
     23  N         23.1900   57.6310   17.9440 N.3    61  CYS61      -0.1221
     24  CA        23.2460   59.0500   17.5100 C.3    61  CYS61       0.1808
     25  C         22.3730   59.9430   18.4340 C.2    61  CYS61       0.2601
     26  O         21.5180   59.4080   19.1580 O.2    61  CYS61      -0.2717
     27  CB        22.7940   59.1890   16.0520 C.3    61  CYS61       0.0970
     28  SG        23.5820   58.0500   14.8760 S.3    61  CYS61      -0.0800
     29  N         22.5790   61.2660   18.4070 N.am   62  ASN62      -0.1974
     30  CA        21.6460   62.1950   19.0100 C.3    62  ASN62       0.1688
     31  C         20.4470   62.3070   18.0180 C.2    62  ASN62       0.2292
     32  O         20.5450   62.8620   16.9330 O.2    62  ASN62      -0.2864
     33  CB        22.2860   63.5430   19.3270 C.3    62  ASN62       0.1181
     34  CG        21.2710   64.5310   19.9760 C.2    62  ASN62       0.2629
     35  OD1       20.2940   65.0430   19.3030 O.2    62  ASN62      -0.2716
     36  ND2       21.4650   64.7950   21.2600 N.am   62  ASN62      -0.0877
     37  N         22.2850   64.0750   11.5010 N.3   102  GLY102     -0.1225
     38  CA        21.2280   63.7660   12.4610 C.3   102  GLY102      0.1811
     39  C         21.4450   62.4370   13.1650 C.2   102  GLY102      0.2280
     40  O         22.6140   62.0840   13.4510 O.2   102  GLY102     -0.2866
     41  N         22.6560   63.5400    4.7860 N.3   135  GLU135     -0.1245
     42  CA        22.4530   62.1280    5.0700 C.3   135  GLU135      0.1567
     43  C         21.0300   61.6960    4.8650 C.2   135  GLU135      0.2260
     44  O         20.0920   62.4360    5.1590 O.2   135  GLU135     -0.2867
     45  CB        22.9040   61.8380    6.4910 C.3   135  GLU135      0.0388
     46  CG        24.3140   62.3840    6.7670 C.3   135  GLU135      0.1160
     47  CD        24.9130   61.9570    8.0610 C.2   135  GLU135      0.3649
     48  OE1       24.8580   60.7130    8.3430 O.co2 135  GLU135     -0.2457
     49  OE2       25.4590   62.8620    8.7870 O.co2 135  GLU135     -0.2457
     50  N         31.5380   50.9720   10.2590 N.3   230  PHE230     -0.1241
     51  CA        31.7130   51.2310   11.6870 C.3   230  PHE230      0.1605
     52  C         31.6610   49.9750   12.4780 C.2   230  PHE230      0.2264
     53  O         30.8820   49.0490   12.2010 O.2   230  PHE230     -0.2867
     54  CB        30.5860   52.1620   12.1740 C.3   230  PHE230      0.0534
     55  CG        30.5330   53.4600   11.4200 C.ar  230  PHE230     -0.0203
     56  CD1       31.5880   54.3580   11.5070 C.ar  230  PHE230     -0.0042
     57  CD2       29.4550   53.7890   10.6440 C.ar  230  PHE230     -0.0042
     58  CE1       31.5590   55.5970   10.8400 C.ar  230  PHE230     -0.0003
     59  CE2       29.4020   55.0470    9.9650 C.ar  230  PHE230     -0.0003
     60  CZ        30.4700   55.9310   10.0540 C.ar  230  PHE230     -0.0000
     61  N         34.2370   67.0390   12.7060 N.3   300  PHE300     -0.1227
     62  CA        33.3630   66.1090   13.3750 C.3   300  PHE300      0.1736
     63  C         32.6040   65.1880   12.4700 C.2   300  PHE300      0.2595
     64  O         32.1730   64.1440   12.9180 O.2   300  PHE300     -0.2718
     65  CB        32.3300   66.8690   14.2870 C.3   300  PHE300      0.0547
     66  CG        32.8740   67.1930   15.5910 C.ar  300  PHE300     -0.0202
     67  CD1       32.9680   66.2060   16.5630 C.ar  300  PHE300     -0.0042
     68  CD2       33.3320   68.4430   15.8590 C.ar  300  PHE300     -0.0042
     69  CE1       33.4770   66.4820   17.7940 C.ar  300  PHE300     -0.0003
     70  CE2       33.8730   68.7590   17.1260 C.ar  300  PHE300     -0.0003
     71  CZ        33.9540   67.7940   18.0910 C.ar  300  PHE300     -0.0000
     72  N         32.3320   65.6090   11.2370 N.am  301  GLN301     -0.1979
     73  CA        31.5950   64.7690   10.3210 C.3   301  GLN301      0.1601
     74  C         32.5580   63.7380    9.7270 C.2   301  GLN301      0.2287
     75  O         32.1250   62.7120    9.3620 O.2   301  GLN301     -0.2864
     76  CB        30.9210   65.6090    9.2200 C.3   301  GLN301      0.0394
     77  CG        30.0760   64.8240    8.1760 C.3   301  GLN301      0.0908
     78  CD        29.0230   63.9440    8.7690 C.2   301  GLN301      0.2608
     79  OE1       28.5270   64.2260    9.8350 O.2   301  GLN301     -0.2717
     80  NE2       28.6480   62.8540    8.0440 N.am  301  GLN301     -0.0878
     81  N         33.8550   76.2540   11.7770 N.3   311  LEU311     -0.1245
     82  CA        32.6750   75.4160   11.6010 C.3   311  LEU311      0.1561
     83  C         31.6240   75.8870   12.5890 C.2   311  LEU311      0.2260
     84  O         31.8570   75.8680   13.8030 O.2   311  LEU311     -0.2867
     85  CB        33.0160   73.9680   11.9120 C.3   311  LEU311      0.0270
     86  CG        31.8100   73.0560   12.2200 C.3   311  LEU311      0.0019
     87  CD1       31.3270   72.6800   10.9400 C.3   311  LEU311      0.0001
     88  CD2       32.2230   71.8070   13.0980 C.3   311  LEU311      0.0001
     89  N         22.2780   69.7200   19.8950 N.3   317  SER317     -0.1202
     90  CA        23.5390   69.0030   20.0260 C.3   317  SER317      0.2020
     91  C         24.6730   69.4810   19.1290 C.2   317  SER317      0.2619
     92  O         25.7770   68.9920   19.2860 O.2   317  SER317     -0.2717
     93  CB        23.3870   67.4980   19.8510 C.3   317  SER317      0.2103
     94  OG        23.3650   67.0900   18.4730 O.3   317  SER317     -0.2182
     95  N         24.4250   70.4660   18.2540 N.am  318  ALA318     -0.1965
     96  CA        25.4150   70.8520   17.2680 C.3   318  ALA318      0.1728
     97  C         26.6580   71.4280   17.8860 C.2   318  ALA318      0.2616
     98  O         26.6050   72.2940   18.7460 O.2   318  ALA318     -0.2715
     99  CB        24.8540   71.7780   16.2310 C.3   318  ALA318      0.0334
    100  N         27.7870   70.8960   17.4300 N.am  319  ILE319     -0.1977
    101  CA        29.1350   71.4000   17.7720 C.3   319  ILE319      0.1596
    102  C         29.7310   72.3420   16.7460 C.2   319  ILE319      0.2287
    103  O         29.6740   72.0860   15.5470 O.2   319  ILE319     -0.2864
    104  CB        30.1040   70.2330   18.0250 C.3   319  ILE319      0.0276
    105  CG1       29.6010   69.4020   19.2030 C.3   319  ILE319      0.0022
    106  CG2       31.4720   70.7430   18.4660 C.3   319  ILE319      0.0022
    107  CD1       30.2260   67.9420   19.2860 C.3   319  ILE319      0.0001
@<TRIPOS>BOND
     1    41    42    1
     2    43    42    1
     3    43    44    2
     4    42    45    1
     5    45    46    1
     6    46    47    1
     7    80    78   am
     8    47    48   ar
     9    47    49   ar
    10    77    78    1
    11    77    76    1
    12    78    79    2
    13    76    73    1
    14    75    74    2
    15    74    73    1
    16     1     2    1
    17    59    60   ar
    18    59    57   ar
    19    60    58   ar
    20     2     3    1
    21     2     5    1
    22    50    51    1
    23    73    72    1
    24    57    55   ar
    25     3     4    2
    26     7     9   ar
    27     7     6   ar
    28    58    56   ar
    29    87    86    1
    30     9    11   ar
    31     5     6    1
    32    72    63   am
    33    55    56   ar
    34    55    54    1
    35    37    38    1
    36     6     8   ar
    37    82    81    1
    38    82    85    1
    39    82    83    1
    40    51    54    1
    41    51    52    1
    42    85    86    1
    43    53    52    2
    44    86    88    1
    45    11    12    1
    46    11    10   ar
    47    38    39    1
    48    63    64    2
    49    63    62    1
    50    83    84    2
    51    13    14    1
    52    61    62    1
    53     8    10   ar
    54    15    14    1
    55    15    16    2
    56    14    17    1
    57    39    40    2
    58    62    65    1
    59    65    66    1
    60    17    18    1
    61    19    18   ar
    62    19    21   ar
    63    28    27    1
    64    18    20   ar
    65    21    22   ar
    66   103   102    2
    67    66    68   ar
    68    66    67   ar
    69    20    22   ar
    70    68    70   ar
    71    27    24    1
    72    99    96    1
    73    67    69   ar
    74   102   101    1
    75    32    31    2
    76    70    71   ar
    77    96    97    1
    78    96    95    1
    79   100   101    1
    80   100    97   am
    81    24    23    1
    82    24    25    1
    83   101   104    1
    84    69    71   ar
    85    97    98    2
    86    31    30    1
    87   104   106    1
    88   104   105    1
    89    95    91   am
    90    29    25   am
    91    29    30    1
    92    25    26    2
    93    94    93    1
    94    30    33    1
    95    91    92    2
    96    91    90    1
    97   105   107    1
    98    35    34    2
    99    33    34    1
   100    93    90    1
   101    89    90    1
   102    34    36   am
