@<TRIPOS>MOLECULE
tmp/1om1A00.pdb
 171 165 0 0 0
SMALL
GASTEIGER

@<TRIPOS>ATOM
      1  N         26.1990    8.1830   25.8000 N.3    39  VAL39      -0.1231
      2  CA        24.8700    7.5900   25.7520 C.3    39  VAL39       0.1692
      3  C         24.8460    6.2420   25.0460 C.2    39  VAL39       0.2593
      4  O         23.8870    5.4860   25.1890 O.2    39  VAL39      -0.2718
      5  CB        23.8470    8.5410   25.0760 C.3    39  VAL39       0.0266
      6  CG1       23.7070    9.8130   25.8940 C.3    39  VAL39       0.0020
      7  CG2       24.2760    8.8620   23.6580 C.3    39  VAL39       0.0020
      8  N         25.9020    5.9350   24.2980 N.am   40  GLY40      -0.1942
      9  CA        25.9470    4.6660   23.5950 C.3    40  GLY40       0.2014
     10  C         27.3030    4.3060   23.0240 C.2    40  GLY40       0.2638
     11  O         28.2420    5.1020   23.0480 O.2    40  GLY40      -0.2714
     12  N         27.4030    3.0920   22.5010 N.am   41  ARG41      -0.1977
     13  CA        28.6450    2.6170   21.9170 C.3    41  ARG41       0.1597
     14  C         28.3900    1.3990   21.0460 C.2    41  ARG41       0.2287
     15  O         27.4060    0.6790   21.2320 O.2    41  ARG41      -0.2864
     16  CB        29.6470    2.2710   23.0230 C.3    41  ARG41       0.0334
     17  CG        29.1680    1.1910   23.9860 C.3    41  ARG41       0.0492
     18  CD        29.6060   -0.1870   23.5210 C.3    41  ARG41       0.2205
     19  NE        29.0490   -1.2590   24.3450 N.pl3  41  ARG41      -0.0865
     20  CZ        27.8300   -1.7690   24.1920 C.cat  41  ARG41       0.5346
     21  NH1       27.0240   -1.3090   23.2410 N.pl3  41  ARG41       0.1354
     22  NH2       27.4200   -2.7490   24.9850 N.pl3  41  ARG41       0.1354
     23  N         31.8450    2.9740   16.7950 N.3    45  SER45      -0.1217
     24  CA        31.7560    4.3190   17.3400 C.3    45  SER45       0.1889
     25  C         31.3460    4.3660   18.8010 C.2    45  SER45       0.2288
     26  O         30.9550    3.3590   19.3990 O.2    45  SER45      -0.2866
     27  CB        30.7470    5.1480   16.5340 C.3    45  SER45       0.2089
     28  OG        29.4180    4.6940   16.7620 O.3    45  SER45      -0.2183
     29  N         29.0080    7.0630   21.2220 N.3    47  VAL47      -0.1245
     30  CA        28.0540    8.1490   21.0740 C.3    47  VAL47       0.1561
     31  C         27.8190    8.9180   22.3590 C.2    47  VAL47       0.2260
     32  O         27.6940    8.3320   23.4340 O.2    47  VAL47      -0.2867
     33  CB        26.7180    7.6020   20.5390 C.3    47  VAL47       0.0252
     34  CG1       25.7330    8.7290   20.3210 C.3    47  VAL47       0.0019
     35  CG2       26.9660    6.8560   19.2330 C.3    47  VAL47       0.0019
     36  N         23.8030   15.2660   19.2940 N.3    60  ILE60      -0.1245
     37  CA        24.3960   13.9600   19.5100 C.3    60  ILE60       0.1561
     38  C         25.7320   13.9570   18.7870 C.2    60  ILE60       0.2260
     39  O         25.8220   14.3650   17.6290 O.2    60  ILE60      -0.2867
     40  CB        23.5000   12.8290   18.9570 C.3    60  ILE60       0.0252
     41  CG1       22.2690   12.6610   19.8520 C.3    60  ILE60       0.0019
     42  CG2       24.2980   11.5340   18.8620 C.3    60  ILE60       0.0019
     43  CD1       22.5560   12.0220   21.2140 C.3    60  ILE60       0.0001
     44  N         28.6730   11.5840   17.5310 N.3    62  LYS62      -0.1245
     45  CA        29.0840   10.2170   17.2540 C.3    62  LYS62       0.1561
     46  C         30.5550   10.2380   16.8720 C.2    62  LYS62       0.2260
     47  O         30.9110   10.6640   15.7770 O.2    62  LYS62      -0.2867
     48  CB        28.2530    9.6460   16.1010 C.3    62  LYS62       0.0271
     49  CG        28.7320    8.2990   15.6010 C.3    62  LYS62       0.0035
     50  CD        27.8590    7.8280   14.4490 C.3    62  LYS62       0.0206
     51  CE        28.2530    6.4430   13.9800 C.3    62  LYS62       0.1093
     52  NZ        27.3480    5.9940   12.8820 N.3    62  LYS62      -0.1314
     53  N         28.9490    6.7240    4.7020 N.3    75  GLU75      -0.1245
     54  CA        27.9640    7.0940    5.7170 C.3    75  GLU75       0.1567
     55  C         27.5830    8.5680    5.6190 C.2    75  GLU75       0.2260
     56  O         26.4110    8.9220    5.7170 O.2    75  GLU75      -0.2867
     57  CB        28.4780    6.7880    7.1330 C.3    75  GLU75       0.0388
     58  CG        27.4050    7.0080    8.2040 C.3    75  GLU75       0.1160
     59  CD        27.8570    6.6850    9.6210 C.2    75  GLU75       0.3649
     60  OE1       28.8820    5.9960    9.7990 O.co2  75  GLU75      -0.2457
     61  OE2       27.1640    7.1170   10.5650 O.co2  75  GLU75      -0.2457
     62  N         17.4670   10.2250   10.9900 N.3    89  VAL89      -0.1245
     63  CA        18.2590   11.1060   11.8270 C.3    89  VAL89       0.1561
     64  C         18.8070   12.2390   10.9700 C.2    89  VAL89       0.2260
     65  O         19.0580   12.0580    9.7830 O.2    89  VAL89      -0.2867
     66  CB        19.4370   10.3930   12.4840 C.3    89  VAL89       0.0252
     67  CG1       20.2890    9.6840   11.4470 C.3    89  VAL89       0.0019
     68  CG2       20.2640   11.4210   13.1990 C.3    89  VAL89       0.0019
     69  N         24.7300   15.2120   15.1470 N.3   107  PHE107     -0.1227
     70  CA        23.3270   15.0320   14.8000 C.3   107  PHE107      0.1736
     71  C         22.3770   15.8220   15.6870 C.2   107  PHE107      0.2595
     72  O         22.7270   16.2270   16.7980 O.2   107  PHE107     -0.2718
     73  CB        22.9530   13.5580   14.9310 C.3   107  PHE107      0.0547
     74  CG        23.7460   12.6400   14.0540 C.ar  107  PHE107     -0.0202
     75  CD1       23.3920   12.4540   12.7220 C.ar  107  PHE107     -0.0042
     76  CD2       24.8100   11.9050   14.5760 C.ar  107  PHE107     -0.0042
     77  CE1       24.0790   11.5460   11.9240 C.ar  107  PHE107     -0.0003
     78  CE2       25.5050   10.9910   13.7850 C.ar  107  PHE107     -0.0003
     79  CZ        25.1370   10.8100   12.4540 C.ar  107  PHE107     -0.0000
     80  N         21.1640   16.0240   15.1860 N.am  108  GLU108     -0.1965
     81  CA        20.1330   16.7080   15.9470 C.3   108  GLU108      0.1733
     82  C         19.9320   15.7800   17.1430 C.2   108  GLU108      0.2616
     83  O         20.0770   14.5630   17.0160 O.2   108  GLU108     -0.2715
     84  CB        18.8480   16.7990   15.1150 C.3   108  GLU108      0.0429
     85  CG        17.7150   17.5800   15.7630 C.3   108  GLU108      0.1163
     86  CD        16.5290   17.7640   14.8260 C.2   108  GLU108      0.3649
     87  OE1       15.8760   16.7570   14.4800 O.co2 108  GLU108     -0.2457
     88  OE2       16.2540   18.9170   14.4310 O.co2 108  GLU108     -0.2457
     89  N         19.6150   16.3380   18.3060 N.am  109  TYR109     -0.1960
     90  CA        19.4280   15.5060   19.4870 C.3   109  TYR109      0.1771
     91  C         18.2210   14.5790   19.4080 C.2   109  TYR109      0.2619
     92  O         17.1740   14.9370   18.8790 O.2   109  TYR109     -0.2715
     93  CB        19.2930   16.3690   20.7410 C.3   109  TYR109      0.0574
     94  CG        19.1370   15.5480   21.9990 C.ar  109  TYR109     -0.0198
     95  CD1       20.1810   14.7490   22.4650 C.ar  109  TYR109     -0.0009
     96  CD2       17.9380   15.5440   22.7080 C.ar  109  TYR109     -0.0009
     97  CE1       20.0370   13.9660   23.6020 C.ar  109  TYR109      0.0417
     98  CE2       17.7820   14.7620   23.8500 C.ar  109  TYR109      0.0417
     99  CZ        18.8350   13.9760   24.2890 C.ar  109  TYR109      0.1957
    100  OH        18.6850   13.1930   25.4120 O.3   109  TYR109     -0.2866
    101  N         18.3840   13.3780   19.9470 N.am  110  VAL110     -0.1963
    102  CA        17.3120   12.3990   19.9760 C.3   110  VAL110      0.1727
    103  C         17.4410   11.6660   21.2990 C.2   110  VAL110      0.2616
    104  O         18.5010   11.1250   21.6090 O.2   110  VAL110     -0.2715
    105  CB        17.4310   11.3720   18.8210 C.3   110  VAL110      0.0290
    106  CG1       16.2820   10.3760   18.8950 C.3   110  VAL110      0.0023
    107  CG2       17.4200   12.0850   17.4740 C.3   110  VAL110      0.0023
    108  N         16.3770   11.6720   22.0930 N.am  111  ASN111     -0.1958
    109  CA        16.4110   10.9780   23.3700 C.3   111  ASN111      0.1819
    110  C         16.0580    9.5300   23.0620 C.2   111  ASN111      0.2621
    111  O         15.6200    9.2160   21.9540 O.2   111  ASN111     -0.2715
    112  CB        15.3890   11.5720   24.3390 C.3   111  ASN111      0.1195
    113  CG        15.8150   11.4320   25.7900 C.2   111  ASN111      0.2630
    114  OD1       16.2760   12.3910   26.4080 O.2   111  ASN111     -0.2716
    115  ND2       15.6800   10.2300   26.3360 N.am  111  ASN111     -0.0877
    116  N         16.2440    8.6420   24.0260 N.am  112  ASN112     -0.1972
    117  CA        15.9340    7.2440   23.7850 C.3   112  ASN112      0.1688
    118  C         15.9230    6.4120   25.0530 C.2   112  ASN112      0.2292
    119  O         16.6110    6.7240   26.0250 O.2   112  ASN112     -0.2864
    120  CB        16.9520    6.6550   22.7990 C.3   112  ASN112      0.1181
    121  CG        16.7070    5.1880   22.5090 C.2   112  ASN112      0.2629
    122  OD1       15.6670    4.8150   21.9640 O.2   112  ASN112     -0.2716
    123  ND2       17.6660    4.3440   22.8760 N.am  112  ASN112     -0.0877
    124  N         18.2590   -1.7170   18.3160 N.3   154  HIS154     -0.1241
    125  CA        19.3650   -0.8570   18.7260 C.3   154  HIS154      0.1621
    126  C         19.5530    0.3520   17.8190 C.2   154  HIS154      0.2264
    127  O         20.1230    1.3650   18.2380 O.2   154  HIS154     -0.2867
    128  CB        20.6630   -1.6730   18.7660 C.3   154  HIS154      0.0745
    129  CG        20.4720   -3.0770   19.2520 C.ar  154  HIS154      0.0817
    130  ND1       19.5820   -3.9520   18.6640 N.ar  154  HIS154     -0.2268
    131  CD2       21.0450   -3.7550   20.2760 C.ar  154  HIS154      0.1154
    132  CE1       19.6140   -5.1070   19.3030 C.ar  154  HIS154      0.1986
    133  NE2       20.4930   -5.0140   20.2860 N.ar  154  HIS154     -0.2212
    134  N         15.8250    4.6060   17.4690 N.3   157  MET157     -0.1245
    135  CA        15.7240    5.4360   18.6650 C.3   157  MET157      0.1570
    136  C         14.2970    5.9120   18.8590 C.2   157  MET157      0.2261
    137  O         13.6930    6.4750   17.9480 O.2   157  MET157     -0.2867
    138  CB        16.6490    6.6490   18.5480 C.3   157  MET157      0.0387
    139  CG        18.1140    6.2990   18.3660 C.3   157  MET157      0.0595
    140  SD        18.8140    5.5320   19.8290 S.3   157  MET157     -0.1393
    141  CE        18.6440    3.7900   19.4490 C.3   157  MET157      0.0692
    142  N         18.5510    5.2870   13.1120 N.3   168  ILE168     -0.1231
    143  CA        19.9410    5.7240   13.2000 C.3   168  ILE168      0.1692
    144  C         20.9810    4.7470   12.6590 C.2   168  ILE168      0.2592
    145  O         20.6520    3.6870   12.1380 O.2   168  ILE168     -0.2718
    146  CB        20.3070    6.0190   14.6590 C.3   168  ILE168      0.0266
    147  CG1       20.2230    4.7230   15.4630 C.3   168  ILE168      0.0019
    148  CG2       19.3570    7.0630   15.2280 C.3   168  ILE168      0.0020
    149  CD1       20.9460    4.7460   16.7810 C.3   168  ILE168      0.0001
    150  N         22.2460    5.1390   12.8300 N.am  169  ASP169     -0.1960
    151  CA        23.4280    4.3980   12.4010 C.3   169  ASP169      0.1840
    152  C         23.3980    3.8780   10.9760 C.2   169  ASP169      0.2622
    153  O         23.1490    2.6960   10.7260 O.2   169  ASP169     -0.2715
    154  CB        23.7390    3.2390   13.3430 C.3   169  ASP169      0.1450
    155  CG        25.2130    2.8650   13.3130 C.2   169  ASP169      0.3671
    156  OD1       25.8880    3.1920   12.3080 O.co2 169  ASP169     -0.2456
    157  OD2       25.7020    2.2500   14.2850 O.co2 169  ASP169     -0.2456
    158  N         23.6790    4.7780   10.0450 N.am  170  TRP170     -0.1974
    159  CA        23.7090    4.4490    8.6320 C.3   170  TRP170      0.1640
    160  C         25.1080    4.0360    8.1880 C.2   170  TRP170      0.2290
    161  O         25.4510    4.1340    7.0130 O.2   170  TRP170     -0.2864
    162  CB        23.2210    5.6560    7.8340 C.3   170  TRP170      0.0576
    163  CG        21.8070    5.9930    8.1900 C.ar  170  TRP170      0.0006
    164  CD1       21.3740    6.6580    9.2990 C.ar  170  TRP170      0.0946
    165  CD2       20.6350    5.5770    7.4890 C.ar  170  TRP170      0.0152
    166  NE1       19.9970    6.6760    9.3390 N.ar  170  TRP170     -0.2442
    167  CE2       19.5200    6.0170    8.2360 C.ar  170  TRP170      0.0810
    168  CE3       20.4180    4.8660    6.3000 C.ar  170  TRP170      0.0012
    169  CZ2       18.2060    5.7720    7.8340 C.ar  170  TRP170      0.0191
    170  CZ3       19.1110    4.6200    5.9020 C.ar  170  TRP170      0.0001
    171  CH2       18.0230    5.0720    6.6660 C.ar  170  TRP170      0.0015
@<TRIPOS>BOND
     1    53    54    1
     2    55    56    2
     3    55    54    1
     4    54    57    1
     5   170   168   ar
     6   170   171   ar
     7   168   165   ar
     8   171   169   ar
     9   161   160    2
    10    57    58    1
    11   165   163   ar
    12   165   167   ar
    13   169   167   ar
    14   162   163    1
    15   162   159    1
    16   160   159    1
    17   163   164   ar
    18    58    59    1
    19   167   166   ar
    20   159   158    1
    21   164   166   ar
    22    59    60   ar
    23    59    61   ar
    24    65    64    2
    25   158   152   am
    26   153   152    2
    27    64    63    1
    28   152   151    1
    29    62    63    1
    30    67    66    1
    31    63    66    1
    32    77    79   ar
    33    77    75   ar
    34   145   144    2
    35   156   155   ar
    36   151   150    1
    37   151   154    1
    38    79    78   ar
    39    66    68    1
    40   144   150   am
    41   144   143    1
    42    75    74   ar
    43    52    51    1
    44   142   143    1
    45   143   146    1
    46   155   154    1
    47   155   157   ar
    48    78    76   ar
    49    51    50    1
    50    74    76   ar
    51    74    73    1
    52    88    86   ar
    53    50    49    1
    54    87    86   ar
    55   146   148    1
    56   146   147    1
    57    70    73    1
    58    70    69    1
    59    70    71    1
    60    86    85    1
    61    84    85    1
    62    84    81    1
    63    80    71   am
    64    80    81    1
    65   147   149    1
    66    49    48    1
    67    71    72    2
    68    47    46    2
    69    81    82    1
    70    48    45    1
    71    27    28    1
    72    27    24    1
    73    23    24    1
    74    46    45    1
    75    83    82    2
    76    82    89   am
    77    45    44    1
    78    24    25    1
    79   134   135    1
    80   107   105    1
    81    39    38    2
    82   126   127    2
    83   126   125    1
    84   137   136    2
    85    89    90    1
    86   124   125    1
    87   139   138    1
    88   139   140    1
    89   138   135    1
    90   130   129   ar
    91   130   132   ar
    92   135   136    1
    93   125   128    1
    94   128   129    1
    95    38    37    1
    96    25    26    2
    97   105   106    1
    98   105   102    1
    99    42    40    1
   100    92    91    2
   101    40    37    1
   102    40    41    1
   103    35    33    1
   104   129   131   ar
   105    36    37    1
   106   132   133   ar
   107    91    90    1
   108    91   101   am
   109   141   140    1
   110    90    93    1
   111    41    43    1
   112   101   102    1
   113   102   103    1
   114   131   133   ar
   115    34    33    1
   116    33    30    1
   117    93    94    1
   118    14    15    2
   119    14    13    1
   120    30    29    1
   121    30    31    1
   122   103   104    2
   123   103   108   am
   124    13    12    1
   125    13    16    1
   126   111   110    2
   127   122   121    2
   128    94    95   ar
   129    94    96   ar
   130   108   109    1
   131    31    32    2
   132    95    97   ar
   133    12    10   am
   134   121   120    1
   135   121   123   am
   136    96    98   ar
   137   120   117    1
   138    16    17    1
   139    10    11    2
   140    10     9    1
   141   110   109    1
   142   110   116   am
   143    21    20    1
   144   109   112    1
   145    18    17    1
   146    18    19    1
   147     9     8    1
   148    97    99   ar
   149     7     5    1
   150   117   116    1
   151   117   118    1
   152    98    99   ar
   153    20    19    2
   154    20    22    1
   155    99   100    1
   156     8     3   am
   157   112   113    1
   158     3     4    2
   159     3     2    1
   160   118   119    2
   161     5     2    1
   162     5     6    1
   163     2     1    1
   164   113   115   am
   165   113   114    2
