@<TRIPOS>MOLECULE
tmp/1om2A00.pdb
 132 124 0 0 0
SMALL
GASTEIGER

@<TRIPOS>ATOM
      1  N          5.0680   11.6290  -15.3930 N.3    17  GLN17      -0.1245
      2  CA         3.8980   11.6500  -16.2560 C.3    17  GLN17       0.1566
      3  C          2.6890   12.1030  -15.4490 C.2    17  GLN17       0.2260
      4  O          1.9120   12.9220  -15.9330 O.2    17  GLN17      -0.2867
      5  CB         3.6530   10.2910  -16.9370 C.3    17  GLN17       0.0367
      6  CG         2.5200   10.3240  -17.9780 C.3    17  GLN17       0.0905
      7  CD         2.7980   11.2340  -19.1760 C.2    17  GLN17       0.2608
      8  OE1        3.9230   11.6710  -19.3990 O.2    17  GLN17      -0.2717
      9  NE2        1.7620   11.5310  -19.9590 N.am   17  GLN17      -0.0878
     10  N          3.1880   15.8240  -14.6410 N.3    20  PHE20      -0.1227
     11  CA         3.1780   16.5700  -15.8990 C.3    20  PHE20       0.1736
     12  C          1.7220   16.7920  -16.3100 C.2    20  PHE20       0.2595
     13  O          1.3130   17.9130  -16.6090 O.2    20  PHE20      -0.2718
     14  CB         3.9940   15.7990  -16.9440 C.3    20  PHE20       0.0547
     15  CG         3.9910   16.2620  -18.3800 C.ar   20  PHE20      -0.0202
     16  CD1        4.4730   17.5390  -18.7030 C.ar   20  PHE20      -0.0042
     17  CD2        3.5370   15.4010  -19.3970 C.ar   20  PHE20      -0.0042
     18  CE1        4.5050   17.9580  -20.0420 C.ar   20  PHE20      -0.0003
     19  CE2        3.5720   15.8200  -20.7370 C.ar   20  PHE20      -0.0003
     20  CZ         4.0610   17.0950  -21.0570 C.ar   20  PHE20      -0.0000
     21  N          0.9330   15.7110  -16.2790 N.am   21  LEU21      -0.1980
     22  CA        -0.4860   15.7440  -16.5830 C.3    21  LEU21       0.1596
     23  C         -1.2590   16.5510  -15.5480 C.2    21  LEU21       0.2287
     24  O         -2.1530   17.3070  -15.9220 O.2    21  LEU21      -0.2864
     25  CB        -1.0390   14.3110  -16.6810 C.3    21  LEU21       0.0297
     26  CG        -1.3150   13.8030  -18.1070 C.3    21  LEU21       0.0022
     27  CD1       -1.5240   12.2850  -18.0300 C.3    21  LEU21       0.0001
     28  CD2       -2.5630   14.5200  -18.6240 C.3    21  LEU21       0.0001
     29  N         -0.6390   20.0800  -16.6580 N.3    24  ILE24      -0.1231
     30  CA        -1.3310   20.3010  -17.9360 C.3    24  ILE24       0.1692
     31  C         -2.8170   20.5910  -17.6230 C.2    24  ILE24       0.2591
     32  O         -3.3940   21.5820  -18.0900 O.2    24  ILE24      -0.2718
     33  CB        -1.1300   19.0600  -18.8830 C.3    24  ILE24       0.0266
     34  CG1        0.0810   19.1320  -19.8580 C.3    24  ILE24       0.0019
     35  CG2       -2.3740   18.5600  -19.6260 C.3    24  ILE24       0.0020
     36  CD1       -0.1690   18.5420  -21.2590 C.3    24  ILE24       0.0001
     37  N         -3.4320   19.7150  -16.8130 N.am   25  GLN25      -0.1979
     38  CA        -4.8420   19.8300  -16.4480 C.3    25  GLN25       0.1601
     39  C         -5.1060   20.9920  -15.4980 C.2    25  GLN25       0.2287
     40  O         -6.0050   21.7900  -15.7490 O.2    25  GLN25      -0.2864
     41  CB        -5.3720   18.5110  -15.8560 C.3    25  GLN25       0.0394
     42  CG        -5.3780   17.2940  -16.8010 C.3    25  GLN25       0.0908
     43  CD        -6.1880   16.1620  -16.1790 C.2    25  GLN25       0.2608
     44  OE1       -7.3800   16.0330  -16.4410 O.2    25  GLN25      -0.2717
     45  NE2       -5.5480   15.3480  -15.3410 N.am   25  GLN25      -0.0878
     46  N         -5.0120   24.2140  -17.5220 N.3    28  GLU28      -0.1231
     47  CA        -6.2720   24.3960  -18.2530 C.3    28  GLU28       0.1699
     48  C         -7.4440   24.7830  -17.3300 C.2    28  GLU28       0.2592
     49  O         -8.2330   25.6680  -17.6550 O.2    28  GLU28      -0.2718
     50  CB        -6.6030   23.1720  -19.1170 C.3    28  GLU28       0.0402
     51  CG        -7.7280   23.5180  -20.1060 C.3    28  GLU28       0.1161
     52  CD        -8.1000   22.3400  -20.9960 C.2    28  GLU28       0.3649
     53  OE1       -8.7520   21.4190  -20.4630 O.co2  28  GLU28      -0.2457
     54  OE2       -7.7260   22.3790  -22.1870 O.co2  28  GLU28      -0.2457
     55  N         -7.5400   24.1360  -16.1670 N.am   29  GLU29      -0.1979
     56  CA        -8.5740   24.3900  -15.1670 C.3    29  GLU29       0.1602
     57  C         -8.4550   25.7890  -14.5470 C.2    29  GLU29       0.2287
     58  O         -9.4620   26.4660  -14.3600 O.2    29  GLU29      -0.2864
     59  CB        -8.5990   23.2650  -14.1230 C.3    29  GLU29       0.0415
     60  CG        -9.7270   23.4420  -13.1030 C.3    29  GLU29       0.1163
     61  CD       -10.0550   22.1290  -12.3950 C.2    29  GLU29       0.3649
     62  OE1      -10.6400   21.2500  -13.0680 O.co2  29  GLU29      -0.2457
     63  OE2       -9.7240   22.0260  -11.1950 O.co2  29  GLU29      -0.2457
     64  N         -9.6200   28.0240  -16.9950 N.3    32  ALA32      -0.1245
     65  CA       -11.0670   27.8870  -17.0020 C.3    32  ALA32       0.1562
     66  C        -11.6900   28.8800  -16.0090 C.2    32  ALA32       0.2260
     67  O        -12.8650   29.2160  -16.1360 O.2    32  ALA32      -0.2867
     68  CB       -11.4940   26.4400  -16.7310 C.3    32  ALA32       0.0290
     69  N          2.4880   25.8640  -17.4580 N.3    43  LEU43      -0.1245
     70  CA         2.8140   25.1700  -18.6860 C.3    43  LEU43       0.1561
     71  C          4.3340   25.1550  -18.7970 C.2    43  LEU43       0.2260
     72  O          4.9000   24.1100  -19.0930 O.2    43  LEU43      -0.2867
     73  CB         2.0970   25.7460  -19.9160 C.3    43  LEU43       0.0270
     74  CG         1.8270   24.6350  -20.9460 C.3    43  LEU43       0.0019
     75  CD1        0.5440   23.8540  -20.6090 C.3    43  LEU43       0.0001
     76  CD2        1.6370   25.2370  -22.3410 C.3    43  LEU43       0.0001
     77  N          7.2630   18.9990  -29.0320 N.3    55  GLN55      -0.1231
     78  CA         6.3140   17.9030  -29.1920 C.3    55  GLN55       0.1698
     79  C          5.0070   18.3030  -28.5240 C.2    55  GLN55       0.2592
     80  O          3.9340   18.1940  -29.1160 O.2    55  GLN55      -0.2718
     81  CB         6.8640   16.5820  -28.6290 C.3    55  GLN55       0.0381
     82  CG         5.8910   15.4060  -28.8050 C.3    55  GLN55       0.0905
     83  CD         5.6140   15.0990  -30.2740 C.2    55  GLN55       0.2608
     84  OE1        4.5370   15.3950  -30.7840 O.2    55  GLN55      -0.2717
     85  NE2        6.5870   14.5040  -30.9630 N.am   55  GLN55      -0.0878
     86  N          5.1120   18.7860  -27.2860 N.am   56  LEU56      -0.1980
     87  CA         3.9470   19.2150  -26.5470 C.3    56  LEU56       0.1596
     88  C          3.2610   20.3910  -27.2510 C.2    56  LEU56       0.2287
     89  O          2.0400   20.4490  -27.2840 O.2    56  LEU56      -0.2864
     90  CB         4.2840   19.5110  -25.0750 C.3    56  LEU56       0.0297
     91  CG         3.0330   19.7690  -24.2150 C.3    56  LEU56       0.0022
     92  CD1        2.1700   18.5050  -24.0070 C.3    56  LEU56       0.0001
     93  CD2        3.4890   20.3510  -22.8750 C.3    56  LEU56       0.0001
     94  N          1.1370   19.0580  -29.8640 N.3    59  VAL59      -0.1231
     95  CA         0.0410   18.3650  -29.2000 C.3    59  VAL59       0.1692
     96  C         -1.0060   19.3410  -28.6550 C.2    59  VAL59       0.2591
     97  O         -2.1980   19.0420  -28.6700 O.2    59  VAL59      -0.2718
     98  CB         0.5800   17.3520  -28.1730 C.3    59  VAL59       0.0266
     99  CG1        0.4050   17.6860  -26.6840 C.3    59  VAL59       0.0020
    100  CG2       -0.0460   16.0040  -28.4050 C.3    59  VAL59       0.0020
    101  N         -0.5680   20.5210  -28.2100 N.am   60  LEU60      -0.1980
    102  CA        -1.4450   21.5570  -27.6790 C.3    60  LEU60       0.1596
    103  C         -2.1170   22.3010  -28.8300 C.2    60  LEU60       0.2287
    104  O         -3.2440   22.7550  -28.6630 O.2    60  LEU60      -0.2864
    105  CB        -0.6120   22.5940  -26.8990 C.3    60  LEU60       0.0297
    106  CG        -0.3760   22.3810  -25.3930 C.3    60  LEU60       0.0022
    107  CD1       -1.4620   23.0670  -24.5500 C.3    60  LEU60       0.0001
    108  CD2       -0.3360   20.9230  -24.9340 C.3    60  LEU60       0.0001
    109  N         -3.0060   21.0120  -31.7520 N.3    62  GLN62      -0.1231
    110  CA        -3.9080   20.0920  -32.4290 C.3    62  GLN62       0.1698
    111  C         -5.0650   19.6160  -31.5530 C.2    62  GLN62       0.2593
    112  O         -6.1010   19.2270  -32.0880 O.2    62  GLN62      -0.2718
    113  CB        -3.0890   18.9270  -32.9980 C.3    62  GLN62       0.0381
    114  CG        -2.8420   17.8080  -31.9800 C.3    62  GLN62       0.0905
    115  CD        -1.8200   16.7960  -32.4850 C.2    62  GLN62       0.2608
    116  OE1       -2.1400   15.6280  -32.6830 O.2    62  GLN62      -0.2717
    117  NE2       -0.5810   17.2410  -32.6910 N.am   62  GLN62      -0.0878
    118  N         -4.9070   19.6370  -30.2230 N.am   63  THR63      -0.1939
    119  CA        -5.9640   19.1740  -29.3330 C.3    63  THR63       0.2028
    120  C         -7.0400   20.2480  -29.1700 C.2    63  THR63       0.2642
    121  O         -8.2200   19.9170  -29.0640 O.2    63  THR63      -0.2714
    122  CB        -5.3880   18.6090  -28.0300 C.3    63  THR63       0.1808
    123  OG1       -6.4030   17.9150  -27.3290 O.3    63  THR63      -0.2208
    124  CG2       -4.7430   19.6510  -27.1210 C.3    63  THR63       0.0379
    125  N         -6.6450   21.5260  -29.1970 N.am   64  LEU64      -0.1977
    126  CA        -7.5670   22.6620  -29.1260 C.3    64  LEU64       0.1596
    127  C         -6.8130   23.9520  -29.4560 C.2    64  LEU64       0.2287
    128  O         -5.6350   24.0320  -29.1280 O.2    64  LEU64      -0.2864
    129  CB        -8.3070   22.7520  -27.7690 C.3    64  LEU64       0.0297
    130  CG        -7.5900   23.5040  -26.6310 C.3    64  LEU64       0.0022
    131  CD1       -8.5710   23.7020  -25.4680 C.3    64  LEU64       0.0001
    132  CD2       -6.3680   22.7420  -26.1130 C.3    64  LEU64       0.0001
@<TRIPOS>BOND
     1   113   110    1
     2   113   114    1
     3   117   115   am
     4   116   115    2
     5   115   114    1
     6   110   109    1
     7   110   111    1
     8   112   111    2
     9   111   118   am
    10    85    83   am
    11    84    83    2
    12    83    82    1
    13   118   119    1
    14    94    95    1
    15   127   128    2
    16   127   126    1
    17   119   120    1
    18   119   122    1
    19    95    96    1
    20    95    98    1
    21   125   120   am
    22   125   126    1
    23    78    77    1
    24    78    81    1
    25    78    79    1
    26   120   121    2
    27   126   129    1
    28    80    79    2
    29   103   104    2
    30   103   102    1
    31    82    81    1
    32    97    96    2
    33    96   101   am
    34    79    86   am
    35   100    98    1
    36   101   102    1
    37    98    99    1
    38   122   123    1
    39   122   124    1
    40   129   130    1
    41   102   105    1
    42    86    87    1
    43    89    88    2
    44    88    87    1
    45   105   106    1
    46   130   132    1
    47   130   131    1
    48    87    90    1
    49   106   108    1
    50   106   107    1
    51    90    91    1
    52    91    92    1
    53    91    93    1
    54    76    74    1
    55    54    52   ar
    56    36    34    1
    57    20    19   ar
    58    20    18   ar
    59    52    53   ar
    60    52    51    1
    61    74    75    1
    62    74    73    1
    63    19    17   ar
    64    51    50    1
    65    18    16   ar
    66     9     7   am
    67    73    70    1
    68    34    33    1
    69    35    33    1
    70     8     7    2
    71    17    15   ar
    72     7     6    1
    73    50    47    1
    74    72    71    2
    75    33    30    1
    76    71    70    1
    77    16    15   ar
    78    70    69    1
    79    28    26    1
    80    15    14    1
    81    47    46    1
    82    47    48    1
    83    26    27    1
    84    26    25    1
    85    32    31    2
    86     6     5    1
    87    30    31    1
    88    30    29    1
    89    49    48    2
    90    31    37   am
    91    48    55   am
    92    65    64    1
    93    65    68    1
    94    65    66    1
    95    14    11    1
    96     5     2    1
    97    37    38    1
    98    42    43    1
    99    42    41    1
   100    25    22    1
   101    13    12    2
   102    22    21    1
   103    22    23    1
   104    38    41    1
   105    38    39    1
   106    44    43    2
   107    12    21   am
   108    12    11    1
   109     2     3    1
   110     2     1    1
   111    43    45   am
   112    55    56    1
   113    67    66    2
   114     4     3    2
   115    24    23    2
   116    11    10    1
   117    40    39    2
   118    56    57    1
   119    56    59    1
   120    57    58    2
   121    59    60    1
   122    60    61    1
   123    62    61   ar
   124    61    63   ar
