@<TRIPOS>MOLECULE
tmp/1om5B03.pdb
 87 87 0 0 0
SMALL
GASTEIGER

@<TRIPOS>ATOM
      1  N         20.0810    3.7360   64.4470 N.3   171  GLN171     -0.1245
      2  CA        19.0520    2.7570   64.7880 C.3   171  GLN171      0.1566
      3  C         19.4440    2.2960   66.1900 C.2   171  GLN171      0.2260
      4  O         20.6280    2.2380   66.5130 O.2   171  GLN171     -0.2867
      5  CB        19.0730    1.5810   63.8260 C.3   171  GLN171      0.0367
      6  CG        18.5030    1.8620   62.4430 C.3   171  GLN171      0.0905
      7  CD        18.6920    0.6820   61.4940 C.2   171  GLN171      0.2608
      8  OE1       18.5730   -0.4800   61.8910 O.2   171  GLN171     -0.2717
      9  NE2       18.9720    0.9780   60.2350 N.am  171  GLN171     -0.0878
     10  N         13.8670   -3.3370   63.9220 N.3   258  PRO258     -0.2116
     11  CA        14.3820   -2.1640   63.2170 C.3   258  PRO258      0.1372
     12  C         13.7870   -0.9420   63.9240 C.2   258  PRO258      0.2244
     13  O         12.5670   -0.7900   63.9880 O.2   258  PRO258     -0.2868
     14  CB        13.8530   -2.3630   61.8060 C.3   258  PRO258      0.0268
     15  CG        12.5020   -2.9740   62.0580 C.3   258  PRO258      0.0207
     16  CD        12.7180   -3.9300   63.2070 C.3   258  PRO258      0.0892
     17  N         14.5140    3.1170   63.9120 N.3   260  VAL260     -0.1245
     18  CA        15.2190    4.3310   63.5470 C.3   260  VAL260      0.1561
     19  C         15.2910    5.2340   64.7700 C.2   260  VAL260      0.2260
     20  O         14.3620    5.2800   65.5730 O.2   260  VAL260     -0.2867
     21  CB        14.5180    5.0080   62.3660 C.3   260  VAL260      0.0252
     22  CG1       15.0700    6.3970   62.1190 C.3   260  VAL260      0.0019
     23  CG2       14.6890    4.1330   61.1360 C.3   260  VAL260      0.0019
     24  N         12.0240    5.2320   67.1230 N.3   277  PHE277     -0.1227
     25  CA        10.7910    4.5130   66.7930 C.3   277  PHE277      0.1736
     26  C         11.0310    3.2150   66.0190 C.2   277  PHE277      0.2596
     27  O         11.7960    3.1870   65.0660 O.2   277  PHE277     -0.2718
     28  CB         9.8180    5.4250   66.0280 C.3   277  PHE277      0.0547
     29  CG        10.3320    5.9120   64.6940 C.ar  277  PHE277     -0.0202
     30  CD1       10.3510    5.0790   63.5900 C.ar  277  PHE277     -0.0042
     31  CD2       10.7480    7.2250   64.5410 C.ar  277  PHE277     -0.0042
     32  CE1       10.7720    5.5390   62.3590 C.ar  277  PHE277     -0.0003
     33  CE2       11.1610    7.6850   63.3330 C.ar  277  PHE277     -0.0003
     34  CZ        11.1720    6.8390   62.2300 C.ar  277  PHE277     -0.0000
     35  N         10.3530    2.1480   66.4350 N.am  278  SER278     -0.1938
     36  CA        10.4980    0.8340   65.8230 C.3   278  SER278      0.2055
     37  C          9.1980    0.1980   65.3150 C.2   278  SER278      0.2644
     38  O          8.0930    0.5300   65.7580 O.2   278  SER278     -0.2714
     39  CB        11.1170   -0.1230   66.8280 C.3   278  SER278      0.2130
     40  OG        10.2130   -0.3480   67.8910 O.3   278  SER278     -0.2179
     41  N          9.3660   -0.7460   64.3900 N.am  279  GLY279     -0.1939
     42  CA         8.2460   -1.4630   63.8200 C.3   279  GLY279      0.2014
     43  C          8.7330   -2.8760   63.5800 C.2   279  GLY279      0.2639
     44  O          9.0870   -3.5750   64.5190 O.2   279  GLY279     -0.2714
     45  N          8.7600   -3.2910   62.3250 N.am  280  TRP280     -0.1959
     46  CA         9.2320   -4.6100   61.9730 C.3   280  TRP280      0.1771
     47  C          9.6020   -4.6360   60.4890 C.2   280  TRP280      0.2620
     48  O          8.9320   -4.0530   59.6500 O.2   280  TRP280     -0.2715
     49  CB         8.1970   -5.6890   62.3360 C.3   280  TRP280      0.0590
     50  CG         6.9080   -5.6500   61.6000 C.ar  280  TRP280      0.0006
     51  CD1        6.6960   -5.9630   60.2820 C.ar  280  TRP280      0.0946
     52  CD2        5.6310   -5.3280   62.1470 C.ar  280  TRP280      0.0152
     53  NE1        5.3600   -5.8550   59.9830 N.ar  280  TRP280     -0.2442
     54  CE2        4.6830   -5.4660   61.1100 C.ar  280  TRP280      0.0810
     55  CE3        5.1930   -4.9370   63.4210 C.ar  280  TRP280      0.0012
     56  CZ2        3.3200   -5.2270   61.3060 C.ar  280  TRP280      0.0191
     57  CZ3        3.8400   -4.7010   63.6170 C.ar  280  TRP280      0.0001
     58  CH2        2.9180   -4.8460   62.5620 C.ar  280  TRP280      0.0015
     59  N         10.7160   -5.3060   60.2150 N.am  281  TYR281     -0.1960
     60  CA        11.3260   -5.4320   58.9010 C.3   281  TYR281      0.1771
     61  C         10.5100   -6.0240   57.7980 C.2   281  TYR281      0.2619
     62  O          9.6350   -6.8730   58.0230 O.2   281  TYR281     -0.2715
     63  CB        12.5940   -6.2920   58.9820 C.3   281  TYR281      0.0574
     64  CG        13.8440   -5.5990   59.4390 C.ar  281  TYR281     -0.0198
     65  CD1       14.4890   -5.9800   60.6150 C.ar  281  TYR281     -0.0009
     66  CD2       14.4370   -4.6150   58.6570 C.ar  281  TYR281     -0.0009
     67  CE1       15.7060   -5.3940   60.9960 C.ar  281  TYR281      0.0417
     68  CE2       15.6390   -4.0270   59.0290 C.ar  281  TYR281      0.0417
     69  CZ        16.2630   -4.4150   60.1920 C.ar  281  TYR281      0.1957
     70  OH        17.4100   -3.7750   60.5690 O.3   281  TYR281     -0.2866
     71  N         10.8640   -5.5680   56.5960 N.am  282  MET282     -0.1977
     72  CA        10.3420   -6.0550   55.3330 C.3   282  MET282      0.1605
     73  C         11.6230   -6.7860   54.8820 C.2   282  MET282      0.2287
     74  O         12.7260   -6.2240   54.9470 O.2   282  MET282     -0.2864
     75  CB         9.9900   -4.9010   54.3870 C.3   282  MET282      0.0413
     76  CG         9.5580   -5.3660   52.9970 C.3   282  MET282      0.0598
     77  SD         8.7720   -4.1180   51.9430 S.3   282  MET282     -0.1393
     78  CE        10.1450   -3.3520   51.1270 C.3   282  MET282      0.0692
     79  N         14.8520   -5.2980   53.0850 N.3   285  GLU285     -0.1245
     80  CA        15.7420   -4.2980   53.6400 C.3   285  GLU285      0.1567
     81  C         17.0050   -4.9770   54.1690 C.2   285  GLU285      0.2260
     82  O         18.0890   -4.3970   54.1640 O.2   285  GLU285     -0.2867
     83  CB        15.0550   -3.4760   54.7380 C.3   285  GLU285      0.0388
     84  CG        15.7250   -2.0990   54.9830 C.3   285  GLU285      0.1160
     85  CD        15.6440   -1.1350   53.7700 C.2   285  GLU285      0.3649
     86  OE1       16.5950   -0.3450   53.5750 O.co2 285  GLU285     -0.2457
     87  OE2       14.6370   -1.1440   53.0150 O.co2 285  GLU285     -0.2457
@<TRIPOS>BOND
     1    78    77    1
     2    77    76    1
     3    76    75    1
     4    87    85   ar
     5    79    80    1
     6    86    85   ar
     7    80    81    1
     8    80    83    1
     9    85    84    1
    10    82    81    2
    11    75    72    1
    12    83    84    1
    13    73    74    2
    14    73    72    1
    15    72    71    1
    16    71    61   am
    17    61    62    2
    18    61    60    1
    19    66    68   ar
    20    66    64   ar
    21    60    63    1
    22    60    59    1
    23    63    64    1
    24    68    69   ar
    25    64    65   ar
    26    48    47    2
    27    53    51   ar
    28    53    54   ar
    29    69    70    1
    30    69    67   ar
    31    59    47   am
    32     9     7   am
    33    51    50   ar
    34    47    46    1
    35    65    67   ar
    36    54    56   ar
    37    54    52   ar
    38    23    21    1
    39    56    58   ar
    40     7     8    2
    41     7     6    1
    42    50    52   ar
    43    50    49    1
    44    14    15    1
    45    14    11    1
    46    46    45    1
    47    46    49    1
    48    15    16    1
    49    22    21    1
    50    52    55   ar
    51    34    32   ar
    52    34    33   ar
    53    45    43   am
    54    32    30   ar
    55    21    18    1
    56     6     5    1
    57    58    57   ar
    58    16    10    1
    59    11    10    1
    60    11    12    1
    61    33    31   ar
    62    55    57   ar
    63    18    17    1
    64    18    19    1
    65    43    42    1
    66    43    44    2
    67    30    29   ar
    68    42    41    1
    69     5     2    1
    70    12    13    2
    71    41    37   am
    72     1     2    1
    73    31    29   ar
    74    29    28    1
    75    19    20    2
    76     2     3    1
    77    27    26    2
    78    37    38    2
    79    37    36    1
    80    36    35    1
    81    36    39    1
    82    26    35   am
    83    26    25    1
    84    28    25    1
    85     3     4    2
    86    25    24    1
    87    39    40    1
