@<TRIPOS>MOLECULE
tmp/1omoA00.pdb
 208 197 0 0 0
SMALL
GASTEIGER

@<TRIPOS>ATOM
      1  N         42.3390   14.5850   49.4040 N.3    81  VAL81      -0.1245
      2  CA        41.9600   13.9670   48.1470 C.3    81  VAL81       0.1561
      3  C         40.4400   13.8730   48.0330 C.2    81  VAL81       0.2260
      4  O         39.7610   13.3670   48.9360 O.2    81  VAL81      -0.2867
      5  CB        42.5490   12.5410   48.0980 C.3    81  VAL81       0.0252
      6  CG1       42.2650   11.8570   46.7810 C.3    81  VAL81       0.0019
      7  CG2       44.0360   12.6090   48.3510 C.3    81  VAL81       0.0019
      8  N         38.5550    5.0390   45.5220 N.3   105  THR105     -0.1203
      9  CA        39.9650    5.1370   45.1280 C.3   105  THR105      0.1994
     10  C         40.7750    4.3790   46.2080 C.2   105  THR105      0.2618
     11  O         41.6880    3.6060   45.8930 O.2   105  THR105     -0.2717
     12  CB        40.4250    6.6240   45.0340 C.3   105  THR105      0.1784
     13  OG1       39.7900    7.2420   43.9080 O.3   105  THR105     -0.2211
     14  CG2       41.9350    6.7350   44.9120 C.3   105  THR105      0.0376
     15  N         40.4090    4.5680   47.4770 N.am  106  SER106     -0.1951
     16  CA        41.1070    3.8820   48.5840 C.3   106  SER106      0.1924
     17  C         40.8080    2.3820   48.5160 C.2   106  SER106      0.2314
     18  O         41.7120    1.5410   48.6350 O.2   106  SER106     -0.2863
     19  CB        40.6460    4.4220   49.9520 C.3   106  SER106      0.2116
     20  OG        41.2970    5.6390   50.2500 O.3   106  SER106     -0.2180
     21  N         39.8300    0.4250   45.8920 N.3   108  ARG108     -0.1231
     22  CA        40.4660   -0.3290   44.8360 C.3   108  ARG108      0.1694
     23  C         41.9960   -0.3670   44.9470 C.2   108  ARG108      0.2592
     24  O         42.6420   -1.1740   44.2960 O.2   108  ARG108     -0.2718
     25  CB        40.0130    0.1610   43.4560 C.3   108  ARG108      0.0321
     26  CG        40.2900    1.6240   43.0960 C.3   108  ARG108      0.0489
     27  CD        41.7730    1.9850   42.9210 C.3   108  ARG108      0.2205
     28  NE        41.9470    3.1660   42.0610 N.pl3 108  ARG108     -0.0865
     29  CZ        43.0400    3.9330   42.0320 C.cat 108  ARG108      0.5346
     30  NH1       44.0590    3.6660   42.8340 N.pl3 108  ARG108      0.1354
     31  NH2       43.1460    4.9270   41.1520 N.pl3 108  ARG108      0.1354
     32  N         42.5740    0.5000   45.7630 N.am  109  THR109     -0.1953
     33  CA        44.0300    0.4760   45.9540 C.3   109  THR109      0.1897
     34  C         44.2120   -0.6520   46.9490 C.2   109  THR109      0.2313
     35  O         45.1090   -1.4860   46.8060 O.2   109  THR109     -0.2863
     36  CB        44.5510    1.8170   46.5370 C.3   109  THR109      0.1794
     37  OG1       44.1250    2.8850   45.6670 O.3   109  THR109     -0.2208
     38  CG2       46.0920    1.8000   46.6260 C.3   109  THR109      0.0378
     39  N         54.3270   -0.2630   57.2580 N.3   131  ILE131     -0.1231
     40  CA        55.1000    0.9520   57.4460 C.3   131  ILE131      0.1692
     41  C         54.1070    2.0200   57.0020 C.2   131  ILE131      0.2593
     42  O         53.8800    2.1960   55.8090 O.2   131  ILE131     -0.2718
     43  CB        56.3250    1.0050   56.5330 C.3   131  ILE131      0.0266
     44  CG1       57.1930   -0.2360   56.7520 C.3   131  ILE131      0.0019
     45  CG2       57.1110    2.2520   56.8170 C.3   131  ILE131      0.0020
     46  CD1       57.6050   -0.4370   58.2040 C.3   131  ILE131      0.0001
     47  N         53.5190    2.7160   57.9710 N.am  132  GLY132     -0.1942
     48  CA        52.5250    3.7330   57.7030 C.3   132  GLY132      0.2014
     49  C         51.1950    3.1340   58.1540 C.2   132  GLY132      0.2639
     50  O         50.8360    2.0330   57.7300 O.2   132  GLY132     -0.2714
     51  N         50.4670    3.8300   59.0140 N.am  133  CYS133     -0.1953
     52  CA        49.2090    3.2960   59.5180 C.3   133  CYS133      0.1843
     53  C         48.0530    4.2630   59.3110 C.2   133  CYS133      0.2626
     54  O         47.1930    4.3990   60.1830 O.2   133  CYS133     -0.2714
     55  CB        49.3320    2.9210   61.0110 C.3   133  CYS133      0.0997
     56  SG        50.6010    1.6360   61.3810 S.3   133  CYS133     -0.0797
     57  N         48.0590    4.9440   58.1600 N.am  134  GLY134     -0.1940
     58  CA        46.9820    5.8510   57.7840 C.3   134  GLY134      0.2014
     59  C         45.8720    5.0850   57.0370 C.2   134  GLY134      0.2640
     60  O         45.8290    3.8460   57.0410 O.2   134  GLY134     -0.2714
     61  N         44.9970    5.8240   56.3710 N.am  135  THR135     -0.1936
     62  CA        43.8740    5.2580   55.6640 C.3   135  THR135      0.2028
     63  C         44.1480    4.0510   54.7960 C.2   135  THR135      0.2642
     64  O         43.5320    3.0070   54.9530 O.2   135  THR135     -0.2714
     65  CB        43.2030    6.3260   54.7940 C.3   135  THR135      0.1808
     66  OG1       42.6470    7.3370   55.6430 O.3   135  THR135     -0.2208
     67  CG2       42.1000    5.7100   53.9400 C.3   135  THR135      0.0379
     68  N         45.0590    4.2000   53.8570 N.am  136  GLN136     -0.1976
     69  CA        45.3730    3.1160   52.9600 C.3   136  GLN136      0.1601
     70  C         45.8150    1.8440   53.6780 C.2   136  GLN136      0.2287
     71  O         45.5050    0.7300   53.2000 O.2   136  GLN136     -0.2864
     72  CB        46.4240    3.5520   51.9450 C.3   136  GLN136      0.0394
     73  CG        46.6660    2.4690   50.9180 C.3   136  GLN136      0.0908
     74  CD        45.3560    1.9220   50.3430 C.2   136  GLN136      0.2608
     75  OE1       45.2360    0.7140   50.0630 O.2   136  GLN136     -0.2717
     76  NE2       44.3620    2.8170   50.1590 N.am  136  GLN136     -0.0878
     77  N         54.0410    0.2010   62.3160 N.3   156  TYR156     -0.1227
     78  CA        54.8650    1.3680   62.5780 C.3   156  TYR156      0.1736
     79  C         54.4010    2.6300   61.8780 C.2   156  TYR156      0.2595
     80  O         54.1650    2.6280   60.6670 O.2   156  TYR156     -0.2718
     81  CB        56.3090    1.1460   62.1360 C.3   156  TYR156      0.0548
     82  CG        57.1200    2.4460   62.1440 C.ar  156  TYR156     -0.0200
     83  CD1       57.3370    3.1760   60.9630 C.ar  156  TYR156     -0.0009
     84  CD2       57.6370    2.9660   63.3500 C.ar  156  TYR156     -0.0009
     85  CE1       58.0500    4.3910   60.9780 C.ar  156  TYR156      0.0417
     86  CE2       58.3400    4.1820   63.3750 C.ar  156  TYR156      0.0417
     87  CZ        58.5430    4.8870   62.1880 C.ar  156  TYR156      0.1957
     88  OH        59.2110    6.0950   62.2270 O.3   156  TYR156     -0.2866
     89  N         54.3080    3.7230   62.6180 N.am  157  ASP157     -0.1960
     90  CA        53.9410    5.0000   62.0030 C.3   157  ASP157      0.1840
     91  C         54.7570    6.0290   62.7680 C.2   157  ASP157      0.2622
     92  O         55.0540    5.7880   63.9330 O.2   157  ASP157     -0.2715
     93  CB        52.4310    5.2600   62.1720 C.3   157  ASP157      0.1450
     94  CG        51.8870    6.3690   61.2260 C.2   157  ASP157      0.3671
     95  OD1       50.9390    6.0920   60.4390 O.co2 157  ASP157     -0.2456
     96  OD2       52.3950    7.5110   61.2690 O.co2 157  ASP157     -0.2456
     97  N         55.1660    7.1350   62.1340 N.am  158  VAL158     -0.1963
     98  CA        55.9120    8.1660   62.8690 C.3   158  VAL158      0.1727
     99  C         54.9660    8.7690   63.8880 C.2   158  VAL158      0.2616
    100  O         55.3900    9.4090   64.8480 O.2   158  VAL158     -0.2715
    101  CB        56.4230    9.3500   61.9960 C.3   158  VAL158      0.0290
    102  CG1       57.6450    8.9380   61.2090 C.3   158  VAL158      0.0023
    103  CG2       55.2930    9.8820   61.0810 C.3   158  VAL158      0.0023
    104  N         53.6750    8.6060   63.6530 N.am  159  ARG159     -0.1977
    105  CA        52.6850    9.1010   64.5940 C.3   159  ARG159      0.1597
    106  C         52.2340    7.8710   65.3760 C.2   159  ARG159      0.2287
    107  O         51.4520    7.0520   64.8750 O.2   159  ARG159     -0.2864
    108  CB        51.4930    9.7250   63.8740 C.3   159  ARG159      0.0334
    109  CG        51.7290   11.1150   63.2950 C.3   159  ARG159      0.0492
    110  CD        50.4090   11.6360   62.7600 C.3   159  ARG159      0.2205
    111  NE        50.4740   13.0040   62.2770 N.pl3 159  ARG159     -0.0865
    112  CZ        51.1070   13.3920   61.1690 C.cat 159  ARG159      0.5346
    113  NH1       51.0950   14.6780   60.8200 N.pl3 159  ARG159      0.1354
    114  NH2       51.7500   12.5100   60.4030 N.pl3 159  ARG159      0.1354
    115  N         48.5550    6.8810   65.5650 N.3   162  ALA162     -0.1245
    116  CA        47.9870    6.1810   64.4290 C.3   162  ALA162      0.1562
    117  C         48.3400    4.6770   64.4710 C.2   162  ALA162      0.2260
    118  O         47.4920    3.8360   64.1640 O.2   162  ALA162     -0.2867
    119  CB        48.4660    6.8270   63.0980 C.3   162  ALA162      0.0290
    120  N         53.0860    2.3460   53.1590 N.3   194  THR194     -0.1203
    121  CA        51.9880    3.2030   52.7910 C.3   194  THR194      0.1994
    122  C         52.2110    4.6930   53.1080 C.2   194  THR194      0.2619
    123  O         51.2590    5.4720   53.2570 O.2   194  THR194     -0.2717
    124  CB        50.7660    2.5920   53.5220 C.3   194  THR194      0.1784
    125  OG1       49.6400    2.5290   52.6530 O.3   194  THR194     -0.2211
    126  CG2       50.4530    3.3010   54.7280 C.3   194  THR194      0.0376
    127  N         53.4790    5.0980   53.1840 N.am  195  THR195     -0.1939
    128  CA        53.8020    6.4790   53.5280 C.3   195  THR195      0.2013
    129  C         53.9980    7.3800   52.3180 C.2   195  THR195      0.2484
    130  O         54.1990    6.9060   51.2100 O.2   195  THR195     -0.2729
    131  CB        55.1000    6.5640   54.3770 C.3   195  THR195      0.1807
    132  OG1       56.2400    6.4430   53.5210 O.3   195  THR195     -0.2208
    133  CG2       55.1570    5.4290   55.4070 C.3   195  THR195      0.0379
    134  N         53.9010    8.6980   52.5230 N.am  196  PRO196     -0.2715
    135  CA        54.0940    9.6480   51.4220 C.3   196  PRO196      0.1536
    136  C         55.5200   10.1820   51.4970 C.2   196  PRO196      0.2599
    137  O         55.8210   11.2320   50.9740 O.2   196  PRO196     -0.2715
    138  CB        53.0800   10.7460   51.7190 C.3   196  PRO196      0.0310
    139  CG        53.1030   10.7860   53.2520 C.3   196  PRO196      0.0237
    140  CD        53.1300    9.3050   53.6260 C.3   196  PRO196      0.0939
    141  N         56.3990    9.4600   52.1660 N.am  197  SER197     -0.1950
    142  CA        57.7810    9.9240   52.2900 C.3   197  SER197      0.1924
    143  C         58.4770   10.1870   50.9580 C.2   197  SER197      0.2314
    144  O         58.0730    9.6630   49.9170 O.2   197  SER197     -0.2863
    145  CB        58.5980    8.9040   53.0650 C.3   197  SER197      0.2116
    146  OG        59.9640    9.2490   53.0240 O.3   197  SER197     -0.2180
    147  N         62.0130   10.0810   51.0750 N.3   199  LYS199     -0.1245
    148  CA        63.3120    9.4670   51.3580 C.3   199  LYS199      0.1561
    149  C         63.0370    8.0790   51.9130 C.2   199  LYS199      0.2260
    150  O         61.9800    7.8270   52.4920 O.2   199  LYS199     -0.2867
    151  CB        64.1300   10.2650   52.3720 C.3   199  LYS199      0.0271
    152  CG        63.4930   10.4070   53.7320 C.3   199  LYS199      0.0035
    153  CD        64.4510   11.1370   54.6870 C.3   199  LYS199      0.0206
    154  CE        63.8700   11.2750   56.0840 C.3   199  LYS199      0.1093
    155  NZ        64.8260   10.7470   57.1280 N.3   199  LYS199     -0.1314
    156  N         62.3270    4.8420   53.8750 N.3   201  VAL201     -0.1245
    157  CA        61.8000    4.5790   55.2030 C.3   201  VAL201      0.1561
    158  C         62.0970    3.1220   55.6070 C.2   201  VAL201      0.2260
    159  O         61.9200    2.7270   56.7520 O.2   201  VAL201     -0.2867
    160  CB        60.2860    4.8190   55.2470 C.3   201  VAL201      0.0252
    161  CG1       59.7100    4.0820   56.4250 C.3   201  VAL201      0.0019
    162  CG2       59.9880    6.3330   55.3530 C.3   201  VAL201      0.0019
    163  N         53.0670    0.8590   48.2180 N.3   216  ILE216     -0.1231
    164  CA        51.8930    1.6770   47.8610 C.3   216  ILE216      0.1692
    165  C         52.0040    3.2080   47.9510 C.2   216  ILE216      0.2592
    166  O         51.3740    3.9290   47.1710 O.2   216  ILE216     -0.2718
    167  CB        50.6160    1.3040   48.7620 C.3   216  ILE216      0.0266
    168  CG1       50.4370   -0.2140   48.9130 C.3   216  ILE216      0.0019
    169  CG2       49.3080    1.8210   48.0860 C.3   216  ILE216      0.0020
    170  CD1       50.1170   -0.9120   47.5960 C.3   216  ILE216      0.0001
    171  N         52.7660    3.7030   48.9250 N.am  217  GLY217     -0.1957
    172  CA        52.8620    5.1240   49.1500 C.3   217  GLY217      0.1869
    173  C         53.2960    6.0470   48.0320 C.2   217  GLY217      0.2309
    174  O         52.6950    7.1100   47.8500 O.2   217  GLY217     -0.2863
    175  N         53.6050    7.7420   44.6200 N.3   219  ASP219     -0.1239
    176  CA        52.7490    7.8830   43.4390 C.3   219  ASP219      0.1674
    177  C         52.9370    9.2010   42.6810 C.2   219  ASP219      0.2266
    178  O         52.1000    9.5560   41.8470 O.2   219  ASP219     -0.2867
    179  CB        51.2990    7.8210   43.8560 C.3   219  ASP219      0.1410
    180  CG        50.9180    9.0330   44.6540 C.2   219  ASP219      0.3668
    181  OD1       51.0270   10.1620   44.1230 O.co2 219  ASP219     -0.2456
    182  OD2       50.5420    8.8600   45.8100 O.co2 219  ASP219     -0.2456
    183  N         58.6370   10.8950   44.9970 N.3   223  LYS223     -0.1245
    184  CA        58.1930   10.1050   46.1450 C.3   223  LYS223      0.1561
    185  C         59.0400    8.8340   46.0700 C.2   223  LYS223      0.2260
    186  O         59.3840    8.3810   44.9660 O.2   223  LYS223     -0.2867
    187  CB        56.7020    9.7470   46.0640 C.3   223  LYS223      0.0271
    188  CG        55.7390   10.8230   46.6010 C.3   223  LYS223      0.0035
    189  CD        54.2890   10.2490   46.5890 C.3   223  LYS223      0.0206
    190  CE        53.2500   11.2220   47.1320 C.3   223  LYS223      0.1093
    191  NZ        51.8590   10.6910   47.0880 N.3   223  LYS223     -0.1314
    192  N         52.7110   -0.0870   43.1530 N.3   290  SER290     -0.1202
    193  CA        51.3810    0.3710   42.8520 C.3   290  SER290      0.2020
    194  C         51.2720    1.8820   42.6200 C.2   290  SER290      0.2619
    195  O         51.7730    2.6870   43.4030 O.2   290  SER290     -0.2717
    196  CB        50.4710   -0.0960   43.9880 C.3   290  SER290      0.2103
    197  OG        49.1740    0.4200   43.9200 O.3   290  SER290     -0.2182
    198  N         50.6410    2.2620   41.5160 N.am  291  THR291     -0.1938
    199  CA        50.4540    3.6770   41.2330 C.3   291  THR291      0.2028
    200  C         48.9930    4.0970   41.1220 C.2   291  THR291      0.2642
    201  O         48.7060    5.2860   41.2170 O.2   291  THR291     -0.2714
    202  CB        51.1770    4.1390   39.9210 C.3   291  THR291      0.1808
    203  OG1       50.6090    3.4810   38.7780 O.3   291  THR291     -0.2208
    204  CG2       52.6700    3.8190   39.9800 C.3   291  THR291      0.0379
    205  N         48.0790    3.1480   40.9220 N.am  292  GLY292     -0.1954
    206  CA        46.6540    3.4740   40.7560 C.3   292  GLY292      0.1869
    207  C         46.3300    3.6800   39.2680 C.2   292  GLY292      0.2309
    208  O         46.8190    4.6270   38.6400 O.2   292  GLY292     -0.2863
@<TRIPOS>BOND
     1   208   207    2
     2   203   202    1
     3   207   206    1
     4   202   204    1
     5   202   199    1
     6   206   205    1
     7   205   200   am
     8   200   201    2
     9   200   199    1
    10    31    29    1
    11   199   198    1
    12   198   194   am
    13   178   177    2
    14    29    28    2
    15    29    30    1
    16    28    27    1
    17   194   193    1
    18   194   195    2
    19   177   176    1
    20   193   192    1
    21   193   196    1
    22    27    26    1
    23    26    25    1
    24   176   179    1
    25   176   175    1
    26    25    22    1
    27   179   180    1
    28    13    12    1
    29   197   196    1
    30   181   180   ar
    31    24    23    2
    32   180   182   ar
    33    22    23    1
    34    22    21    1
    35    14    12    1
    36    23    32   am
    37   186   185    2
    38   183   184    1
    39    12     9    1
    40     9     8    1
    41     9    10    1
    42    37    36    1
    43    32    33    1
    44    11    10    2
    45    33    36    1
    46    33    34    1
    47   187   184    1
    48   187   188    1
    49   185   184    1
    50    10    15   am
    51    36    38    1
    52   189   188    1
    53   189   190    1
    54     6     5    1
    55    35    34    2
    56   191   190    1
    57   166   165    2
    58    15    16    1
    59   170   168    1
    60   174   173    2
    61   164   165    1
    62   164   163    1
    63   164   167    1
    64   165   171   am
    65   173   172    1
    66     3     2    1
    67     3     4    2
    68   169   167    1
    69     5     2    1
    70     5     7    1
    71     2     1    1
    72    17    16    1
    73    17    18    2
    74    16    19    1
    75   167   168    1
    76   171   172    1
    77   144   143    2
    78    19    20    1
    79    75    74    2
    80    76    74   am
    81    74    73    1
    82    73    72    1
    83   143   142    1
    84   137   136    2
    85   147   148    1
    86   130   129    2
    87   148   149    1
    88   148   151    1
    89   135   136    1
    90   135   138    1
    91   135   134    1
    92   136   141   am
    93   138   139    1
    94   149   150    2
    95    72    69    1
    96   141   142    1
    97   142   145    1
    98   129   134   am
    99   129   128    1
   100   151   152    1
   101   134   140    1
   102   125   124    1
   103   121   122    1
   104   121   120    1
   105   121   124    1
   106    69    70    1
   107    69    68    1
   108   146   145    1
   109   122   127   am
   110   122   123    2
   111   127   128    1
   112    71    70    2
   113   139   140    1
   114   132   131    1
   115   124   126    1
   116   128   131    1
   117   152   153    1
   118    68    63   am
   119   156   157    1
   120    67    65    1
   121   131   133    1
   122   153   154    1
   123    65    66    1
   124    65    62    1
   125    63    64    2
   126    63    62    1
   127   157   160    1
   128   157   158    1
   129   160   162    1
   130   160   161    1
   131   158   159    2
   132    62    61    1
   133    42    41    2
   134   154   155    1
   135    61    59   am
   136    43    44    1
   137    43    45    1
   138    43    40    1
   139    44    46    1
   140    41    40    1
   141    41    47   am
   142    59    60    2
   143    59    58    1
   144    39    40    1
   145    48    47    1
   146    48    49    1
   147    50    49    2
   148    58    57    1
   149    49    51   am
   150    57    53   am
   151    51    52    1
   152    53    52    1
   153    53    54    2
   154    52    55    1
   155   114   112    1
   156    95    94   ar
   157    80    79    2
   158   113   112    1
   159    83    85   ar
   160    83    82   ar
   161    85    87   ar
   162    55    56    1
   163   103   101    1
   164   112   111    2
   165   102   101    1
   166    94    96   ar
   167    94    93    1
   168    79    78    1
   169    79    89   am
   170   101    98    1
   171    90    93    1
   172    90    89    1
   173    90    91    1
   174    97    91   am
   175    97    98    1
   176    81    82    1
   177    81    78    1
   178    82    84   ar
   179    87    88    1
   180    87    86   ar
   181   111   110    1
   182    77    78    1
   183   110   109    1
   184    91    92    2
   185    98    99    1
   186   119   116    1
   187   109   108    1
   188    84    86   ar
   189   104    99   am
   190   104   105    1
   191   108   105    1
   192    99   100    2
   193   118   117    2
   194   116   117    1
   195   116   115    1
   196   105   106    1
   197   107   106    2
