@<TRIPOS>MOLECULE
tmp/1on3E01.pdb
 167 158 0 0 0
SMALL
GASTEIGER

@<TRIPOS>ATOM
      1  N         -4.7680   53.3020   35.4980 N.3    31  ARG31      -0.1245
      2  CA        -4.1840   52.1480   34.8170 C.3    31  ARG31       0.1563
      3  C         -3.8310   51.0620   35.8210 C.2    31  ARG31       0.2260
      4  O         -3.8120   49.8750   35.4830 O.2    31  ARG31      -0.2867
      5  CB        -2.9470   52.5650   34.0260 C.3    31  ARG31       0.0307
      6  CG        -3.2770   53.3970   32.8030 C.3    31  ARG31       0.0489
      7  CD        -2.0280   53.8070   32.0530 C.3    31  ARG31       0.2205
      8  NE        -2.3510   54.6140   30.8820 N.pl3  31  ARG31      -0.0865
      9  CZ        -2.9310   54.1450   29.7820 C.cat  31  ARG31       0.5346
     10  NH1       -3.2530   52.8620   29.6880 N.pl3  31  ARG31       0.1354
     11  NH2       -3.2040   54.9680   28.7790 N.pl3  31  ARG31       0.1354
     12  N         -7.0180   49.2440   36.4410 N.3    34  LYS34      -0.1245
     13  CA        -7.3220   48.3230   35.3540 C.3    34  LYS34       0.1561
     14  C         -6.4840   47.0510   35.5000 C.2    34  LYS34       0.2260
     15  O         -6.9830   45.9360   35.2910 O.2    34  LYS34      -0.2867
     16  CB        -7.0520   48.9660   33.9950 C.3    34  LYS34       0.0271
     17  CG        -7.3320   48.0320   32.8240 C.3    34  LYS34       0.0035
     18  CD        -7.2440   48.7690   31.4940 C.3    34  LYS34       0.0206
     19  CE        -7.6940   47.8890   30.3350 C.3    34  LYS34       0.1093
     20  NZ        -7.7150   48.6390   29.0370 N.3    34  LYS34      -0.1314
     21  N         -7.9480   43.1860   36.1470 N.3    38  GLN38      -0.1245
     22  CA        -7.6350   42.0440   35.2920 C.3    38  GLN38       0.1566
     23  C         -7.0330   40.8930   36.0840 C.2    38  GLN38       0.2260
     24  O         -6.5770   39.9030   35.5080 O.2    38  GLN38      -0.2867
     25  CB        -6.6710   42.4550   34.1750 C.3    38  GLN38       0.0367
     26  CG        -7.2120   43.5440   33.2760 C.3    38  GLN38       0.0905
     27  CD        -6.2260   43.9680   32.2000 C.2    38  GLN38       0.2608
     28  OE1       -5.0290   44.0840   32.4480 O.2    38  GLN38      -0.2717
     29  NE2       -6.7340   44.2250   31.0020 N.am   38  GLN38      -0.0878
     30  N         -4.3170   41.0260   38.0540 N.3    40  LYS40      -0.1245
     31  CA        -2.8520   41.0870   38.0520 C.3    40  LYS40       0.1561
     32  C         -2.3450   42.1020   39.0630 C.2    40  LYS40       0.2260
     33  O         -2.9790   43.1310   39.2890 O.2    40  LYS40      -0.2867
     34  CB        -2.3240   41.5320   36.6830 C.3    40  LYS40       0.0271
     35  CG        -2.8750   40.7900   35.4920 C.3    40  LYS40       0.0035
     36  CD        -2.5340   41.5400   34.2170 C.3    40  LYS40       0.0206
     37  CE        -3.3230   40.9960   33.0390 C.3    40  LYS40       0.1093
     38  NZ        -3.1870   41.8740   31.8450 N.3    40  LYS40      -0.1314
     39  N          3.4350   47.3110   33.1140 N.3   101  PHE101     -0.1241
     40  CA         2.4950   47.4170   32.0100 C.3   101  PHE101      0.1605
     41  C          1.6960   48.7350   32.0100 C.2   101  PHE101      0.2264
     42  O          1.2140   49.1580   30.9630 O.2   101  PHE101     -0.2867
     43  CB         1.5170   46.2400   32.0460 C.3   101  PHE101      0.0534
     44  CG         0.6200   46.1690   30.8450 C.ar  101  PHE101     -0.0203
     45  CD1        1.1060   45.6980   29.6280 C.ar  101  PHE101     -0.0042
     46  CD2       -0.6950   46.6320   30.9130 C.ar  101  PHE101     -0.0042
     47  CE1        0.3120   45.6890   28.4960 C.ar  101  PHE101     -0.0003
     48  CE2       -1.5050   46.6300   29.7800 C.ar  101  PHE101     -0.0003
     49  CZ        -0.9990   46.1580   28.5680 C.ar  101  PHE101     -0.0000
     50  N          3.0780   52.8170   29.1690 N.3   104  MET104     -0.1230
     51  CA         3.1900   52.5400   27.7390 C.3   104  MET104      0.1702
     52  C          3.1080   51.0350   27.4400 C.2   104  MET104      0.2592
     53  O          3.8900   50.4870   26.6560 O.2   104  MET104     -0.2718
     54  CB         4.4940   53.1270   27.1880 C.3   104  MET104      0.0401
     55  CG         4.5070   54.6600   27.0730 C.3   104  MET104      0.0596
     56  SD         5.9410   55.3200   26.1350 S.3   104  MET104     -0.1393
     57  CE         5.4940   54.9570   24.4150 C.3   104  MET104      0.0692
     58  N          2.1410   50.3700   28.0640 N.am  105  GLY105     -0.1957
     59  CA         1.9700   48.9420   27.8520 C.3   105  GLY105      0.1869
     60  C          3.1920   48.1040   28.1800 C.2   105  GLY105      0.2309
     61  O          3.3720   47.0110   27.6310 O.2   105  GLY105     -0.2863
     62  N          5.8940   48.3520   27.1480 N.3   107  SER107     -0.1217
     63  CA         6.7250   48.2530   25.9490 C.3   107  SER107      0.1889
     64  C          8.1760   48.4850   26.3220 C.2   107  SER107      0.2288
     65  O          8.4880   49.3750   27.1110 O.2   107  SER107     -0.2866
     66  CB         6.2970   49.2750   24.8980 C.3   107  SER107      0.2089
     67  OG         6.3790   50.5950   25.4060 O.3   107  SER107     -0.2183
     68  N          4.1400   44.7280   25.8760 N.3   137  GLY137     -0.1210
     69  CA         3.6620   44.6770   24.5030 C.3   137  GLY137      0.1956
     70  C          4.8120   44.5140   23.5150 C.2   137  GLY137      0.2612
     71  O          4.6180   44.6330   22.3030 O.2   137  GLY137     -0.2717
     72  N          6.0120   44.2430   24.0290 N.am  138  GLY138     -0.1942
     73  CA         7.1720   44.0630   23.1630 C.3   138  GLY138      0.2014
     74  C          8.0680   45.2930   23.0150 C.2   138  GLY138      0.2639
     75  O          8.0030   46.2180   23.8170 O.2   138  GLY138     -0.2714
     76  N          8.9120   45.3120   21.9880 N.am  139  ALA139     -0.1963
     77  CA         9.8060   46.4510   21.7770 C.3   139  ALA139      0.1728
     78  C          8.9740   47.7210   21.5870 C.2   139  ALA139      0.2616
     79  O          7.9790   47.7130   20.8660 O.2   139  ALA139     -0.2715
     80  CB        10.6920   46.2090   20.5550 C.3   139  ALA139      0.0334
     81  N          9.3700   48.8060   22.2490 N.am  140  ARG140     -0.1963
     82  CA         8.6300   50.0640   22.1360 C.3   140  ARG140      0.1729
     83  C          8.7240   50.5500   20.6920 C.2   140  ARG140      0.2616
     84  O          9.7760   51.0110   20.2340 O.2   140  ARG140     -0.2715
     85  CB         9.2080   51.1090   23.0810 C.3   140  ARG140      0.0348
     86  CG         8.3430   52.3700   23.2130 C.3   140  ARG140      0.0492
     87  CD         8.9020   53.2920   24.2900 C.3   140  ARG140      0.2205
     88  NE         8.8360   52.7070   25.6300 N.pl3 140  ARG140     -0.0865
     89  CZ         9.5540   53.1360   26.6670 C.cat 140  ARG140      0.5346
     90  NH1       10.4040   54.1490   26.5220 N.pl3 140  ARG140      0.1354
     91  NH2        9.4010   52.5780   27.8610 N.pl3 140  ARG140      0.1354
     92  N          7.6050   50.4540   19.9860 N.am  141  ILE141     -0.1963
     93  CA         7.5370   50.8090   18.5750 C.3   141  ILE141      0.1727
     94  C          7.9670   52.2170   18.1620 C.2   141  ILE141      0.2616
     95  O          8.5280   52.3940   17.0720 O.2   141  ILE141     -0.2715
     96  CB         6.1200   50.5020   18.0310 C.3   141  ILE141      0.0290
     97  CG1        5.8790   48.9800   18.0570 C.3   141  ILE141      0.0022
     98  CG2        5.9760   51.0150   16.6240 C.3   141  ILE141      0.0023
     99  CD1        4.4210   48.5590   17.7620 C.3   141  ILE141      0.0001
    100  N          7.7100   53.2100   19.0120 N.am  142  GLN142     -0.1977
    101  CA         8.0980   54.5880   18.7050 C.3   142  GLN142      0.1601
    102  C          9.6220   54.7540   18.6510 C.2   142  GLN142      0.2287
    103  O         10.1260   55.7080   18.0500 O.2   142  GLN142     -0.2864
    104  CB         7.5500   55.5670   19.7560 C.3   142  GLN142      0.0394
    105  CG         6.0290   55.7470   19.7860 C.3   142  GLN142      0.0908
    106  CD         5.3370   54.8410   20.7980 C.2   142  GLN142      0.2608
    107  OE1        4.2460   55.1560   21.2850 O.2   142  GLN142     -0.2717
    108  NE2        5.9580   53.7130   21.1110 N.am  142  GLN142     -0.0878
    109  N         14.9880   47.9500   19.3050 N.3   148  LEU148     -0.1245
    110  CA        15.4060   46.6970   18.6660 C.3   148  LEU148      0.1561
    111  C         16.7650   46.3090   19.2610 C.2   148  LEU148      0.2260
    112  O         16.9600   45.1840   19.7150 O.2   148  LEU148     -0.2867
    113  CB        15.5670   46.9080   17.1610 C.3   148  LEU148      0.0270
    114  CG        15.3950   45.7930   16.1220 C.3   148  LEU148      0.0019
    115  CD1       16.3590   46.0690   14.9710 C.3   148  LEU148      0.0001
    116  CD2       15.6270   44.4200   16.7190 C.3   148  LEU148      0.0001
    117  N         16.8030   44.8390   22.7850 N.3   151  TYR151     -0.1241
    118  CA        16.5250   43.4020   22.8760 C.3   151  TYR151      0.1605
    119  C         17.7580   42.5860   22.5210 C.2   151  TYR151      0.2264
    120  O         18.0170   41.5570   23.1420 O.2   151  TYR151     -0.2867
    121  CB        15.3550   43.0120   21.9650 C.3   151  TYR151      0.0534
    122  CG        13.9930   43.1920   22.6140 C.ar  151  TYR151     -0.0201
    123  CD1       12.8220   43.0200   21.8820 C.ar  151  TYR151     -0.0009
    124  CD2       13.8760   43.5090   23.9730 C.ar  151  TYR151     -0.0009
    125  CE1       11.5580   43.1550   22.4870 C.ar  151  TYR151      0.0417
    126  CE2       12.6240   43.6480   24.5820 C.ar  151  TYR151      0.0417
    127  CZ        11.4700   43.4670   23.8300 C.ar  151  TYR151      0.1957
    128  OH        10.2320   43.5930   24.4320 O.3   151  TYR151     -0.2866
    129  N          1.0380   40.2450   28.9820 N.3   174  PRO174     -0.2116
    130  CA         1.4050   39.9440   27.6000 C.3   174  PRO174      0.1372
    131  C          2.9210   39.8700   27.4600 C.2   174  PRO174      0.2244
    132  O          3.6660   40.3960   28.2910 O.2   174  PRO174     -0.2868
    133  CB         0.8560   41.1410   26.8180 C.3   174  PRO174      0.0268
    134  CG        -0.2730   41.6160   27.6510 C.3   174  PRO174      0.0207
    135  CD         0.2630   41.4930   29.0550 C.3   174  PRO174      0.0892
    136  N          4.3020   39.9950   23.8470 N.3   176  ALA176     -0.1231
    137  CA         4.0500   39.9970   22.4100 C.3   176  ALA176      0.1694
    138  C          5.2580   40.1530   21.5060 C.2   176  ALA176      0.2593
    139  O          5.8910   41.2180   21.4730 O.2   176  ALA176     -0.2718
    140  CB         3.0250   41.0800   22.0840 C.3   176  ALA176      0.0304
    141  N          5.5620   39.0960   20.7600 N.am  177  GLY177     -0.1942
    142  CA         6.6690   39.1420   19.8310 C.3   177  GLY177      0.2014
    143  C          8.0050   38.5760   20.2810 C.2   177  GLY177      0.2639
    144  O          8.0870   37.7500   21.1910 O.2   177  GLY177     -0.2714
    145  N          9.0570   39.0370   19.6150 N.am  178  GLY178     -0.1954
    146  CA        10.4070   38.5920   19.9130 C.3   178  GLY178      0.1869
    147  C         10.8180   38.7280   21.3640 C.2   178  GLY178      0.2309
    148  O         11.7680   38.0800   21.7860 O.2   178  GLY178     -0.2863
    149  N          3.7910   34.8630   22.5130 N.3   198  PHE198     -0.1227
    150  CA         3.8200   34.3750   21.1370 C.3   198  PHE198      0.1736
    151  C          4.7710   35.2040   20.2850 C.2   198  PHE198      0.2595
    152  O          5.0670   36.3600   20.6080 O.2   198  PHE198     -0.2718
    153  CB         2.4090   34.3730   20.5270 C.3   198  PHE198      0.0547
    154  CG         1.6070   35.6090   20.8240 C.ar  198  PHE198     -0.0202
    155  CD1        2.0050   36.8540   20.3370 C.ar  198  PHE198     -0.0042
    156  CD2        0.4510   35.5270   21.5970 C.ar  198  PHE198     -0.0042
    157  CE1        1.2590   38.0030   20.6170 C.ar  198  PHE198     -0.0003
    158  CE2       -0.3030   36.6650   21.8840 C.ar  198  PHE198     -0.0003
    159  CZ         0.1000   37.9070   21.3950 C.ar  198  PHE198     -0.0000
    160  N          5.2840   34.5980   19.2240 N.am  199  ILE199     -0.1980
    161  CA         6.2010   35.3090   18.3420 C.3   199  ILE199      0.1595
    162  C          5.3570   36.1520   17.3930 C.2   199  ILE199      0.2287
    163  O          5.6610   37.3160   17.1530 O.2   199  ILE199     -0.2864
    164  CB         7.0890   34.3320   17.5380 C.3   199  ILE199      0.0276
    165  CG1        8.1220   33.6840   18.4750 C.3   199  ILE199      0.0022
    166  CG2        7.7990   35.0720   16.4100 C.3   199  ILE199      0.0022
    167  CD1        8.8450   34.6980   19.3880 C.3   199  ILE199      0.0001
@<TRIPOS>BOND
     1   115   114    1
     2   114   116    1
     3   114   113    1
     4   166   164    1
     5    98    96    1
     6    95    94    2
     7   163   162    2
     8   113   110    1
     9   162   161    1
    10   164   161    1
    11   164   165    1
    12    99    97    1
    13    96    97    1
    14    96    93    1
    15   103   102    2
    16    94    93    1
    17    94   100   am
    18   161   160    1
    19   165   167    1
    20    93    92    1
    21   102   101    1
    22   110   111    1
    23   110   109    1
    24   101   100    1
    25   101   104    1
    26   160   151   am
    27   111   112    2
    28   145   146    1
    29   145   143   am
    30   104   105    1
    31   105   106    1
    32   142   143    1
    33   142   141    1
    34   146   147    1
    35    92    83   am
    36    84    83    2
    37   143   144    2
    38   151   152    2
    39   151   150    1
    40   155   157   ar
    41   155   154   ar
    42   153   154    1
    43   153   150    1
    44    80    77    1
    45   157   159   ar
    46    83    82    1
    47   141   138   am
    48   106   108   am
    49   106   107    2
    50   154   156   ar
    51    79    78    2
    52   150   149    1
    53   147   148    2
    54   159   158   ar
    55   139   138    2
    56   138   137    1
    57    78    77    1
    58    78    81   am
    59   156   158   ar
    60    77    76    1
    61   123   125   ar
    62   123   122   ar
    63   121   122    1
    64   121   118    1
    65    76    74   am
    66   140   137    1
    67    82    81    1
    68    82    85    1
    69    71    70    2
    70   137   136    1
    71   125   127   ar
    72   119   118    1
    73   119   120    2
    74   122   124   ar
    75   117   118    1
    76    74    73    1
    77    74    75    2
    78    85    86    1
    79    73    72    1
    80    86    87    1
    81    70    72   am
    82    70    69    1
    83   127   128    1
    84   127   126   ar
    85   124   126   ar
    86    87    88    1
    87    57    56    1
    88    69    68    1
    89    66    67    1
    90    66    63    1
    91    88    89    2
    92    63    64    1
    93    63    62    1
    94    56    55    1
    95    64    65    2
    96    90    89    1
    97    53    52    2
    98    89    91    1
    99   133   130    1
   100   133   134    1
   101    55    54    1
   102    54    51    1
   103    52    51    1
   104    52    58   am
   105   131   130    1
   106   131   132    2
   107   130   129    1
   108    61    60    2
   109   134   135    1
   110    51    50    1
   111    59    58    1
   112    59    60    1
   113    47    49   ar
   114    47    45   ar
   115    49    48   ar
   116    11     9    1
   117   129   135    1
   118    20    19    1
   119    45    44   ar
   120    10     9    1
   121    48    46   ar
   122     9     8    2
   123    19    18    1
   124    44    46   ar
   125    44    43    1
   126     8     7    1
   127    42    41    2
   128    29    27   am
   129    18    17    1
   130    38    37    1
   131    40    41    1
   132    40    43    1
   133    40    39    1
   134     7     6    1
   135    27    28    2
   136    27    26    1
   137     6     5    1
   138    17    16    1
   139    37    36    1
   140    26    25    1
   141    16    13    1
   142     5     2    1
   143    25    22    1
   144    36    35    1
   145     2     1    1
   146     2     3    1
   147    15    14    2
   148    22    23    1
   149    22    21    1
   150    13    14    1
   151    13    12    1
   152     4     3    2
   153    35    34    1
   154    24    23    2
   155    34    31    1
   156    31    30    1
   157    31    32    1
   158    32    33    2
