@<TRIPOS>MOLECULE
tmp/1on6A00.pdb
 222 208 0 0 0
SMALL
GASTEIGER

@<TRIPOS>ATOM
      1  N        -28.0560  -65.4350  -44.6070 N.3    10  GLN10      -0.1231
      2  CA       -28.0790  -64.9260  -45.9710 C.3    10  GLN10       0.1698
      3  C        -26.6760  -65.1950  -46.5170 C.2    10  GLN10       0.2593
      4  O        -25.6950  -65.0570  -45.7890 O.2    10  GLN10      -0.2718
      5  CB       -28.4110  -63.4280  -45.9510 C.3    10  GLN10       0.0381
      6  CG       -28.7050  -62.7860  -47.3030 C.3    10  GLN10       0.0905
      7  CD       -29.3430  -61.4160  -47.1460 C.2    10  GLN10       0.2608
      8  OE1      -30.5660  -61.2960  -47.0030 O.2    10  GLN10      -0.2717
      9  NE2      -28.5190  -60.3740  -47.1470 N.am   10  GLN10      -0.0878
     10  N        -26.5750  -65.6220  -47.7720 N.am   11  THR11      -0.1939
     11  CA       -25.2720  -65.9220  -48.3440 C.3    11  THR11       0.2028
     12  C        -25.0730  -65.3330  -49.7370 C.2    11  THR11       0.2642
     13  O        -25.9940  -65.2880  -50.5530 O.2    11  THR11      -0.2714
     14  CB       -25.0290  -67.4520  -48.3910 C.3    11  THR11       0.1808
     15  OG1      -23.6660  -67.7130  -48.7450 O.3    11  THR11      -0.2208
     16  CG2      -25.9370  -68.1070  -49.4140 C.3    11  THR11       0.0379
     17  N        -23.8530  -64.8800  -49.9940 N.am   12  TYR12      -0.1973
     18  CA       -23.4980  -64.2870  -51.2770 C.3    12  TYR12       0.1639
     19  C        -22.0120  -64.5210  -51.5370 C.2    12  TYR12       0.2290
     20  O        -21.1630  -64.0330  -50.7930 O.2    12  TYR12      -0.2864
     21  CB       -23.7990  -62.7890  -51.2580 C.3    12  TYR12       0.0560
     22  CG       -23.3740  -62.0590  -52.5100 C.ar   12  TYR12      -0.0198
     23  CD1      -24.0410  -62.2560  -53.7180 C.ar   12  TYR12      -0.0009
     24  CD2      -22.2970  -61.1730  -52.4890 C.ar   12  TYR12      -0.0009
     25  CE1      -23.6450  -61.5860  -54.8750 C.ar   12  TYR12       0.0417
     26  CE2      -21.8930  -60.5000  -53.6350 C.ar   12  TYR12       0.0417
     27  CZ       -22.5700  -60.7100  -54.8260 C.ar   12  TYR12       0.1957
     28  OH       -22.1690  -60.0420  -55.9670 O.3    12  TYR12      -0.2866
     29  N        -20.0860  -66.9370  -50.9550 N.3    14  ARG14      -0.1245
     30  CA       -19.3900  -67.5240  -49.8210 C.3    14  ARG14       0.1563
     31  C        -19.9420  -68.9270  -49.6190 C.2    14  ARG14       0.2260
     32  O        -20.0950  -69.3930  -48.4900 O.2    14  ARG14      -0.2867
     33  CB       -19.6300  -66.6950  -48.5580 C.3    14  ARG14       0.0307
     34  CG       -18.8580  -65.3900  -48.4640 C.3    14  ARG14       0.0489
     35  CD       -19.2150  -64.6580  -47.1680 C.3    14  ARG14       0.2205
     36  NE       -18.3590  -63.5020  -46.9250 N.pl3  14  ARG14      -0.0865
     37  CZ       -18.6240  -62.5350  -46.0470 C.cat  14  ARG14       0.5346
     38  NH1      -19.7310  -62.5760  -45.3150 N.pl3  14  ARG14       0.1354
     39  NH2      -17.7790  -61.5160  -45.9070 N.pl3  14  ARG14       0.1354
     40  N        -28.6980  -65.3780  -51.9770 N.3    39  ASN39      -0.1240
     41  CA       -28.6590  -64.1310  -52.7300 C.3    39  ASN39       0.1653
     42  C        -27.8000  -64.1830  -53.9850 C.2    39  ASN39       0.2266
     43  O        -27.5170  -63.1500  -54.5890 O.2    39  ASN39      -0.2867
     44  CB       -28.1940  -62.9870  -51.8300 C.3    39  ASN39       0.1155
     45  CG       -29.3270  -62.3890  -51.0340 C.2    39  ASN39       0.2627
     46  OD1      -30.4610  -62.8710  -51.0910 O.2    39  ASN39      -0.2716
     47  ND2      -29.0340  -61.3310  -50.2840 N.am   39  ASN39      -0.0877
     48  N        -30.0220  -59.5790  -55.1940 N.3    68  ASN68      -0.1240
     49  CA       -29.0580  -59.5770  -54.1150 C.3    68  ASN68       0.1653
     50  C        -29.3190  -58.3520  -53.2450 C.2    68  ASN68       0.2266
     51  O        -28.6780  -57.3110  -53.3910 O.2    68  ASN68      -0.2867
     52  CB       -27.6330  -59.5530  -54.6730 C.3    68  ASN68       0.1155
     53  CG       -26.5880  -59.4230  -53.5840 C.2    68  ASN68       0.2627
     54  OD1      -26.7900  -59.8850  -52.4600 O.2    68  ASN68      -0.2716
     55  ND2      -25.4620  -58.8000  -53.9120 N.am   68  ASN68      -0.0877
     56  N        -29.6270  -56.8570  -49.3330 N.3    70  MET70      -0.1245
     57  CA       -29.2610  -57.0310  -47.9350 C.3    70  MET70       0.1570
     58  C        -30.4560  -57.3320  -47.0490 C.2    70  MET70       0.2261
     59  O        -30.3520  -58.1120  -46.1070 O.2    70  MET70      -0.2867
     60  CB       -28.5700  -55.7730  -47.4140 C.3    70  MET70       0.0387
     61  CG       -27.0810  -55.7370  -47.6500 C.3    70  MET70       0.0595
     62  SD       -26.2890  -57.1470  -46.8670 S.3    70  MET70      -0.1393
     63  CE       -27.0230  -57.0820  -45.2090 C.3    70  MET70       0.0692
     64  N        -33.0000  -61.1760  -45.9030 N.3    73  ARG73      -0.1245
     65  CA       -33.0800  -61.9960  -44.7020 C.3    73  ARG73       0.1563
     66  C        -34.0690  -61.4410  -43.6880 C.2    73  ARG73       0.2260
     67  O        -34.3220  -62.0610  -42.6620 O.2    73  ARG73      -0.2867
     68  CB       -31.7040  -62.1220  -44.0540 C.3    73  ARG73       0.0307
     69  CG       -31.1530  -60.8150  -43.5270 C.3    73  ARG73       0.0489
     70  CD       -29.7230  -60.9890  -43.0560 C.3    73  ARG73       0.2205
     71  NE       -29.1570  -59.7340  -42.5750 N.pl3  73  ARG73      -0.0865
     72  CZ       -27.9350  -59.6080  -42.0710 C.cat  73  ARG73       0.5346
     73  NH1      -27.1360  -60.6630  -41.9770 N.pl3  73  ARG73       0.1354
     74  NH2      -27.5170  -58.4220  -41.6560 N.pl3  73  ARG73       0.1354
     75  N        -24.1460  -63.8990  -39.9900 N.3    89  ASP89      -0.1225
     76  CA       -23.5820  -63.6590  -41.3090 C.3    89  ASP89       0.1805
     77  C        -22.8500  -64.9280  -41.7300 C.2    89  ASP89       0.2598
     78  O        -22.3480  -65.6650  -40.8810 O.2    89  ASP89      -0.2718
     79  CB       -22.6070  -62.4770  -41.2790 C.3    89  ASP89       0.1424
     80  CG       -23.2980  -61.1500  -41.0300 C.2    89  ASP89       0.3668
     81  OD1      -24.5060  -61.0290  -41.3090 O.co2  89  ASP89      -0.2456
     82  OD2      -22.6220  -60.2080  -40.5710 O.co2  89  ASP89      -0.2456
     83  N        -22.7760  -65.1770  -43.0350 N.am   90  ASP90      -0.1960
     84  CA       -22.1280  -66.3820  -43.5370 C.3    90  ASP90       0.1840
     85  C        -20.5980  -66.3720  -43.5370 C.2    90  ASP90       0.2622
     86  O        -19.9630  -66.9110  -44.4470 O.2    90  ASP90      -0.2715
     87  CB       -22.6540  -66.7060  -44.9400 C.3    90  ASP90       0.1450
     88  CG       -22.2100  -65.7020  -45.9810 C.2    90  ASP90       0.3671
     89  OD1      -22.0320  -64.5130  -45.6340 O.co2  90  ASP90      -0.2456
     90  OD2      -22.0570  -66.1070  -47.1510 O.co2  90  ASP90      -0.2456
     91  N        -20.0100  -65.7610  -42.5150 N.am   91  ASP91      -0.1971
     92  CA       -18.5560  -65.7280  -42.3750 C.3    91  ASP91       0.1709
     93  C        -18.2170  -65.7630  -40.8880 C.2    91  ASP91       0.2293
     94  O        -17.0640  -65.6090  -40.4930 O.2    91  ASP91      -0.2864
     95  CB       -17.9710  -64.4620  -43.0130 C.3    91  ASP91       0.1436
     96  CG       -18.4220  -63.1890  -42.3190 C.2    91  ASP91       0.3671
     97  OD1      -19.3460  -63.2560  -41.4800 O.co2  91  ASP91      -0.2456
     98  OD2      -17.8570  -62.1150  -42.6300 O.co2  91  ASP91      -0.2456
     99  N        -22.1960  -58.4230  -30.9660 N.3   117  VAL117     -0.1245
    100  CA       -21.4910  -57.2790  -31.5280 C.3   117  VAL117      0.1561
    101  C        -22.2010  -55.9690  -31.2020 C.2   117  VAL117      0.2260
    102  O        -23.1960  -55.6020  -31.8320 O.2   117  VAL117     -0.2867
    103  CB       -21.3340  -57.4420  -33.0540 C.3   117  VAL117      0.0252
    104  CG1      -20.4440  -56.3410  -33.6060 C.3   117  VAL117      0.0019
    105  CG2      -20.7370  -58.8290  -33.3650 C.3   117  VAL117      0.0019
    106  N        -22.4080  -51.8010  -30.7500 N.3   119  ARG119     -0.1245
    107  CA       -21.9370  -50.5910  -31.4020 C.3   119  ARG119      0.1563
    108  C        -22.7230  -49.4090  -30.8540 C.2   119  ARG119      0.2260
    109  O        -23.6680  -49.5890  -30.0800 O.2   119  ARG119     -0.2867
    110  CB       -22.1170  -50.6970  -32.9160 C.3   119  ARG119      0.0307
    111  CG       -21.2080  -51.7230  -33.5690 C.3   119  ARG119      0.0489
    112  CD       -19.7490  -51.2950  -33.5160 C.3   119  ARG119      0.2205
    113  NE       -18.8910  -52.2210  -34.2480 N.pl3 119  ARG119     -0.0865
    114  CZ       -18.3190  -53.3060  -33.7250 C.cat 119  ARG119      0.5346
    115  NH1      -18.4970  -53.6220  -32.4400 N.pl3 119  ARG119      0.1354
    116  NH2      -17.5850  -54.0910  -34.5030 N.pl3 119  ARG119      0.1354
    117  N        -21.4270  -42.8540  -36.3650 N.3   131  TYR131     -0.1241
    118  CA       -21.4640  -44.2770  -36.0220 C.3   131  TYR131      0.1605
    119  C        -20.0790  -44.7810  -35.6160 C.2   131  TYR131      0.2264
    120  O        -19.0670  -44.3830  -36.1980 O.2   131  TYR131     -0.2867
    121  CB       -21.9530  -45.0790  -37.2300 C.3   131  TYR131      0.0534
    122  CG       -21.8800  -46.5770  -37.0590 C.ar  131  TYR131     -0.0201
    123  CD1      -22.9720  -47.3000  -36.5750 C.ar  131  TYR131     -0.0009
    124  CD2      -20.7200  -47.2740  -37.3830 C.ar  131  TYR131     -0.0009
    125  CE1      -22.9070  -48.6830  -36.4220 C.ar  131  TYR131      0.0417
    126  CE2      -20.6440  -48.6570  -37.2330 C.ar  131  TYR131      0.0417
    127  CZ       -21.7410  -49.3540  -36.7530 C.ar  131  TYR131      0.1957
    128  OH       -21.6690  -50.7180  -36.6100 O.3   131  TYR131     -0.2866
    129  N        -25.5400  -55.4100  -33.4250 N.3   151  LEU151     -0.1245
    130  CA       -25.6960  -55.7910  -34.8230 C.3   151  LEU151      0.1561
    131  C        -26.4430  -57.1060  -34.9910 C.2   151  LEU151      0.2260
    132  O        -26.1870  -58.0760  -34.2800 O.2   151  LEU151     -0.2867
    133  CB       -24.3310  -55.8390  -35.5110 C.3   151  LEU151      0.0270
    134  CG       -23.4470  -54.6000  -35.3120 C.3   151  LEU151      0.0019
    135  CD1      -22.3190  -54.6660  -36.3080 C.3   151  LEU151      0.0001
    136  CD2      -24.2370  -53.3050  -35.4990 C.3   151  LEU151      0.0001
    137  N        -26.3200  -59.2540  -37.3930 N.3   153  GLY153     -0.1225
    138  CA       -25.5690  -60.3150  -38.0520 C.3   153  GLY153      0.1811
    139  C        -24.9680  -61.3660  -37.1240 C.2   153  GLY153      0.2280
    140  O        -24.1990  -62.2220  -37.5630 O.2   153  GLY153     -0.2866
    141  N        -27.9730  -50.3730  -49.5090 N.3   180  GLN180     -0.1231
    142  CA       -27.6980  -51.8070  -49.4180 C.3   180  GLN180      0.1698
    143  C        -26.8510  -51.9990  -48.1720 C.2   180  GLN180      0.2592
    144  O        -25.8830  -52.7640  -48.1510 O.2   180  GLN180     -0.2718
    145  CB       -26.9340  -52.2860  -50.6510 C.3   180  GLN180      0.0381
    146  CG       -27.8370  -52.6550  -51.8050 C.3   180  GLN180      0.0905
    147  CD       -28.7890  -53.7740  -51.4340 C.2   180  GLN180      0.2608
    148  OE1      -28.3600  -54.8680  -51.0720 O.2   180  GLN180     -0.2717
    149  NE2      -30.0890  -53.5030  -51.5170 N.am  180  GLN180     -0.0878
    150  N        -27.2440  -51.2870  -47.1270 N.am  181  ASN181     -0.1974
    151  CA       -26.5240  -51.2930  -45.8700 C.3   181  ASN181      0.1688
    152  C        -27.5000  -50.7120  -44.8590 C.2   181  ASN181      0.2292
    153  O        -28.6230  -50.3590  -45.2160 O.2   181  ASN181     -0.2864
    154  CB       -25.3120  -50.3690  -46.0190 C.3   181  ASN181      0.1181
    155  CG       -24.4060  -50.3720  -44.8140 C.2   181  ASN181      0.2629
    156  OD1      -24.8170  -50.7120  -43.7060 O.2   181  ASN181     -0.2716
    157  ND2      -23.1550  -49.9670  -45.0220 N.am  181  ASN181     -0.0877
    158  N        -29.2980  -52.0280  -42.6120 N.3   183  ASP183     -0.1225
    159  CA       -30.4520  -52.8320  -42.2550 C.3   183  ASP183      0.1805
    160  C        -30.4790  -53.0670  -40.7470 C.2   183  ASP183      0.2597
    161  O        -31.5370  -53.0090  -40.1220 O.2   183  ASP183     -0.2718
    162  CB       -30.4140  -54.1680  -43.0070 C.3   183  ASP183      0.1424
    163  CG       -29.0280  -54.7860  -43.0280 C.2   183  ASP183      0.3668
    164  OD1      -28.0860  -54.1170  -43.5060 O.co2 183  ASP183     -0.2456
    165  OD2      -28.8750  -55.9380  -42.5730 O.co2 183  ASP183     -0.2456
    166  N        -29.3170  -53.3140  -40.1510 N.am  184  ASP184     -0.1974
    167  CA       -29.2910  -53.5510  -38.7110 C.3   184  ASP184      0.1709
    168  C        -29.4830  -52.2610  -37.9220 C.2   184  ASP184      0.2293
    169  O        -30.0310  -52.2720  -36.8230 O.2   184  ASP184     -0.2864
    170  CB       -28.0030  -54.2820  -38.2870 C.3   184  ASP184      0.1436
    171  CG       -26.7700  -53.6870  -38.8910 C.2   184  ASP184      0.3671
    172  OD1      -26.8960  -52.6560  -39.5860 O.co2 184  ASP184     -0.2456
    173  OD2      -25.6770  -54.2550  -38.6660 O.co2 184  ASP184     -0.2456
    174  N        -14.3850  -65.0290  -36.9750 N.3   210  ASN210     -0.1240
    175  CA       -14.7260  -64.5980  -38.3200 C.3   210  ASN210      0.1653
    176  C        -13.8080  -65.3410  -39.2820 C.2   210  ASN210      0.2266
    177  O        -12.5940  -65.2000  -39.2140 O.2   210  ASN210     -0.2867
    178  CB       -14.5240  -63.0910  -38.4690 C.3   210  ASN210      0.1155
    179  CG       -15.0750  -62.5600  -39.7830 C.2   210  ASN210      0.2627
    180  OD1      -14.6320  -62.9560  -40.8630 O.2   210  ASN210     -0.2716
    181  ND2      -16.0540  -61.6660  -39.6950 N.am  210  ASN210     -0.0877
    182  N        -12.2820  -65.8750  -42.9140 N.3   212  GLU212     -0.1245
    183  CA       -12.0820  -65.1770  -44.1860 C.3   212  GLU212      0.1567
    184  C        -10.6900  -65.4280  -44.7590 C.2   212  GLU212      0.2260
    185  O        -10.4720  -65.3010  -45.9680 O.2   212  GLU212     -0.2867
    186  CB       -12.2950  -63.6690  -44.0160 C.3   212  GLU212      0.0388
    187  CG       -13.7110  -63.2700  -43.6460 C.3   212  GLU212      0.1160
    188  CD       -13.8480  -61.7830  -43.3920 C.2   212  GLU212      0.3649
    189  OE1      -13.0030  -61.2270  -42.6570 O.co2 212  GLU212     -0.2457
    190  OE2      -14.8030  -61.1710  -43.9160 O.co2 212  GLU212     -0.2457
    191  N        -18.0190  -47.7320  -46.8170 N.3   216  HIS216     -0.1226
    192  CA       -18.9630  -48.6330  -46.1700 C.3   216  HIS216      0.1752
    193  C        -19.2920  -48.1100  -44.7780 C.2   216  HIS216      0.2596
    194  O        -20.4310  -48.2030  -44.3230 O.2   216  HIS216     -0.2718
    195  CB       -18.3730  -50.0360  -46.0430 C.3   216  HIS216      0.0759
    196  CG       -19.1050  -50.9040  -45.0660 C.ar  216  HIS216      0.0818
    197  ND1      -20.3550  -51.4240  -45.3220 N.ar  216  HIS216     -0.2268
    198  CD2      -18.7840  -51.2980  -43.8110 C.ar  216  HIS216      0.1154
    199  CE1      -20.7740  -52.0990  -44.2670 C.ar  216  HIS216      0.1986
    200  NE2      -19.8390  -52.0370  -43.3350 N.ar  216  HIS216     -0.2212
    201  N        -18.2840  -47.5690  -44.1000 N.am  217  PHE217     -0.1976
    202  CA       -18.4740  -47.0330  -42.7590 C.3   217  PHE217      0.1639
    203  C        -19.1460  -45.6700  -42.8470 C.2   217  PHE217      0.2290
    204  O        -19.9360  -45.2890  -41.9790 O.2   217  PHE217     -0.2864
    205  CB       -17.1280  -46.9130  -42.0450 C.3   217  PHE217      0.0560
    206  CG       -16.5100  -48.1970  -41.5850 C.ar  217  PHE217     -0.0200
    207  CD1      -17.2780  -49.2750  -41.1310 C.ar  217  PHE217     -0.0042
    208  CD2      -15.1070  -48.3100  -41.5860 C.ar  217  PHE217     -0.0042
    209  CE1      -16.6690  -50.4220  -40.6590 C.ar  217  PHE217     -0.0003
    210  CE2      -14.4950  -49.4710  -41.1290 C.ar  217  PHE217     -0.0003
    211  CZ       -15.2880  -50.5270  -40.6550 C.ar  217  PHE217     -0.0000
    212  N        -22.7820  -45.7410  -42.7490 N.3   220  ARG220     -0.1245
    213  CA       -23.2780  -46.0330  -41.4130 C.3   220  ARG220      0.1563
    214  C        -23.7820  -44.7650  -40.7290 C.2   220  ARG220      0.2260
    215  O        -24.9360  -44.6880  -40.3070 O.2   220  ARG220     -0.2867
    216  CB       -22.1610  -46.6550  -40.5850 C.3   220  ARG220      0.0307
    217  CG       -21.8190  -48.0660  -41.0070 C.3   220  ARG220      0.0489
    218  CD       -22.9190  -49.0060  -40.5850 C.3   220  ARG220      0.2205
    219  NE       -22.6160  -50.3830  -40.9400 N.pl3 220  ARG220     -0.0865
    220  CZ       -23.1080  -51.4450  -40.3060 C.cat 220  ARG220      0.5346
    221  NH1      -23.9310  -51.2950  -39.2710 N.pl3 220  ARG220      0.1354
    222  NH2      -22.7800  -52.6640  -40.7140 N.pl3 220  ARG220      0.1354
@<TRIPOS>BOND
     1    28    27    1
     2    48    49    1
     3    25    27   ar
     4    25    23   ar
     5    27    26   ar
     6    52    49    1
     7    52    53    1
     8    43    42    2
     9    49    50    1
    10    42    41    1
    11    55    53   am
    12    23    22   ar
    13    26    24   ar
    14    53    54    2
    15    51    50    2
    16    41    40    1
    17    41    44    1
    18    22    24   ar
    19    22    21    1
    20    44    45    1
    21   146   147    1
    22   146   145    1
    23    19    18    1
    24    19    20    2
    25   149   147   am
    26   147   148    2
    27    18    21    1
    28    18    17    1
    29    46    45    2
    30    45    47   am
    31    29    30    1
    32   145   142    1
    33    13    12    2
    34    17    12   am
    35    30    31    1
    36    30    33    1
    37    12    11    1
    38    31    32    2
    39   141   142    1
    40   142   143    1
    41    16    14    1
    42    56    57    1
    43    15    14    1
    44    33    34    1
    45    34    35    1
    46    14    11    1
    47    11    10    1
    48   143   144    2
    49   143   150   am
    50    57    60    1
    51    57    58    1
    52    10     3   am
    53    61    60    1
    54    61    62    1
    55     6     7    1
    56     6     5    1
    57    35    36    1
    58    90    88   ar
    59     9     7   am
    60     7     8    2
    61   150   151    1
    62    58    59    2
    63    36    37    2
    64    62    63    1
    65   191   192    1
    66     3     2    1
    67     3     4    2
    68   192   195    1
    69   192   193    1
    70    37    39    1
    71    37    38    1
    72   195   196    1
    73   154   151    1
    74   154   155    1
    75    88    89   ar
    76    88    87    1
    77     2     5    1
    78     2     1    1
    79   185   184    2
    80    64    65    1
    81   151   152    1
    82   197   196   ar
    83   197   199   ar
    84   153   152    2
    85   196   198   ar
    86   157   155   am
    87    87    84    1
    88   155   156    2
    89   193   194    2
    90   193   201   am
    91   184   183    1
    92    65    68    1
    93    65    66    1
    94    86    85    2
    95   199   200   ar
    96   183   186    1
    97   183   182    1
    98   201   202    1
    99    68    69    1
   100   186   187    1
   101   190   188   ar
   102   198   200   ar
   103    66    67    2
   104   187   188    1
   105    84    85    1
   106    84    83    1
   107    85    91   am
   108    69    70    1
   109   164   163   ar
   110   188   189   ar
   111    70    71    1
   112    83    77   am
   113   163   162    1
   114   163   165   ar
   115    95    92    1
   116    95    96    1
   117   162   159    1
   118   203   202    1
   119   203   204    2
   120   202   205    1
   121   212   213    1
   122    98    96   ar
   123   158   159    1
   124    71    72    2
   125    91    92    1
   126    92    93    1
   127    96    97   ar
   128   159   160    1
   129    72    73    1
   130    72    74    1
   131   205   206    1
   132    77    76    1
   133    77    78    2
   134   208   206   ar
   135   208   210   ar
   136   206   207   ar
   137   213   214    1
   138   213   216    1
   139    76    79    1
   140    76    75    1
   141    81    80   ar
   142    79    80    1
   143   207   209   ar
   144   210   211   ar
   145    80    82   ar
   146   217   218    1
   147   217   216    1
   148   219   218    1
   149   219   220    2
   150    93    94    2
   151   180   179    2
   152   160   166   am
   153   160   161    2
   154   214   215    2
   155   222   220    1
   156   209   211   ar
   157   220   221    1
   158   166   167    1
   159   179   181   am
   160   179   178    1
   161   172   171   ar
   162   176   177    2
   163   176   175    1
   164   171   173   ar
   165   171   170    1
   166   167   170    1
   167   167   168    1
   168   178   175    1
   169   175   174    1
   170   138   137    1
   171   138   139    1
   172   168   169    2
   173   140   139    2
   174   124   126   ar
   175   124   122   ar
   176   126   127   ar
   177   121   122    1
   178   121   118    1
   179   122   123   ar
   180   127   128    1
   181   127   125   ar
   182   123   125   ar
   183   117   118    1
   184   135   134    1
   185   120   119    2
   186   118   119    1
   187   133   134    1
   188   133   130    1
   189   136   134    1
   190   131   130    1
   191   131   132    2
   192   130   129    1
   193   116   114    1
   194   113   114    2
   195   113   112    1
   196   114   115    1
   197   104   103    1
   198   111   112    1
   199   111   110    1
   200   105   103    1
   201   103   100    1
   202   110   107    1
   203   102   101    2
   204   100   101    1
   205   100    99    1
   206   107   108    1
   207   107   106    1
   208   108   109    2
