@<TRIPOS>MOLECULE
tmp/1on8A01.pdb
 168 159 0 0 0
SMALL
GASTEIGER

@<TRIPOS>ATOM
      1  N        -27.8860  -65.0060  -43.9760 N.3    10  GLN10      -0.1245
      2  CA       -27.8570  -64.4880  -45.3350 C.3    10  GLN10       0.1566
      3  C        -26.4310  -64.6940  -45.8420 C.2    10  GLN10       0.2260
      4  O        -25.4690  -64.3610  -45.1490 O.2    10  GLN10      -0.2867
      5  CB       -28.2210  -63.0020  -45.3110 C.3    10  GLN10       0.0367
      6  CG       -28.4000  -62.3640  -46.6650 C.3    10  GLN10       0.0905
      7  CD       -29.0700  -61.0110  -46.5660 C.2    10  GLN10       0.2608
      8  OE1      -30.2860  -60.8920  -46.7080 O.2    10  GLN10      -0.2717
      9  NE2      -28.2780  -59.9820  -46.3020 N.am   10  GLN10      -0.0878
     10  N        -23.5920  -64.3190  -49.1980 N.3    12  TYR12      -0.1241
     11  CA       -23.2690  -63.7170  -50.4860 C.3    12  TYR12       0.1605
     12  C        -21.8200  -63.9590  -50.8770 C.2    12  TYR12       0.2264
     13  O        -20.8940  -63.4990  -50.2120 O.2    12  TYR12      -0.2867
     14  CB       -23.5240  -62.2100  -50.4880 C.3    12  TYR12       0.0534
     15  CG       -23.0240  -61.5580  -51.7560 C.ar   12  TYR12      -0.0201
     16  CD1      -23.5180  -61.9490  -53.0020 C.ar   12  TYR12      -0.0009
     17  CD2      -21.9970  -60.6160  -51.7240 C.ar   12  TYR12      -0.0009
     18  CE1      -22.9950  -61.4290  -54.1840 C.ar   12  TYR12       0.0417
     19  CE2      -21.4680  -60.0870  -52.8970 C.ar   12  TYR12       0.0417
     20  CZ       -21.9710  -60.5000  -54.1240 C.ar   12  TYR12       0.1957
     21  OH       -21.4440  -59.9920  -55.2900 O.3    12  TYR12      -0.2866
     22  N        -19.8870  -66.3870  -50.5550 N.3    14  ARG14      -0.1245
     23  CA       -19.1500  -66.9280  -49.4270 C.3    14  ARG14       0.1563
     24  C        -19.5920  -68.3640  -49.1850 C.2    14  ARG14       0.2260
     25  O        -19.4910  -68.8700  -48.0730 O.2    14  ARG14      -0.2867
     26  CB       -19.4270  -66.1100  -48.1670 C.3    14  ARG14       0.0307
     27  CG       -18.5850  -64.8680  -47.9870 C.3    14  ARG14       0.0489
     28  CD       -18.9290  -64.2130  -46.6520 C.3    14  ARG14       0.2205
     29  NE       -18.0450  -63.0970  -46.3260 N.pl3  14  ARG14      -0.0865
     30  CZ       -18.3900  -62.0790  -45.5410 C.cat  14  ARG14       0.5346
     31  NH1      -19.6010  -62.0360  -45.0010 N.pl3  14  ARG14       0.1354
     32  NH2      -17.5320  -61.0960  -45.3040 N.pl3  14  ARG14       0.1354
     33  N        -28.3310  -64.9080  -51.5010 N.3    39  ASN39      -0.1240
     34  CA       -28.2480  -63.6780  -52.2790 C.3    39  ASN39       0.1653
     35  C        -27.3470  -63.7530  -53.5060 C.2    39  ASN39       0.2266
     36  O        -26.8980  -62.7270  -54.0290 O.2    39  ASN39      -0.2867
     37  CB       -27.8250  -62.5180  -51.3750 C.3    39  ASN39       0.1155
     38  CG       -28.9940  -61.9420  -50.6050 C.2    39  ASN39       0.2627
     39  OD1      -30.0780  -62.5200  -50.6050 O.2    39  ASN39      -0.2716
     40  ND2      -28.7850  -60.8050  -49.9470 N.am   39  ASN39      -0.0877
     41  N        -29.8020  -59.1740  -54.7030 N.3    68  ASN68      -0.1240
     42  CA       -28.9030  -59.2100  -53.5620 C.3    68  ASN68       0.1653
     43  C        -29.0570  -57.9530  -52.7130 C.2    68  ASN68       0.2266
     44  O        -28.3300  -56.9800  -52.8990 O.2    68  ASN68      -0.2867
     45  CB       -27.4600  -59.3440  -54.0540 C.3    68  ASN68       0.1155
     46  CG       -26.4420  -59.0650  -52.9710 C.2    68  ASN68       0.2627
     47  OD1      -26.5660  -59.5470  -51.8490 O.2    68  ASN68      -0.2716
     48  ND2      -25.4160  -58.2930  -53.3080 N.am   68  ASN68      -0.0877
     49  N        -29.3720  -56.2720  -48.7250 N.3    70  MET70      -0.1245
     50  CA       -29.0710  -56.4480  -47.3100 C.3    70  MET70       0.1570
     51  C        -30.3370  -56.6910  -46.5160 C.2    70  MET70       0.2261
     52  O        -30.3100  -57.3300  -45.4710 O.2    70  MET70      -0.2867
     53  CB       -28.3970  -55.1960  -46.7570 C.3    70  MET70       0.0387
     54  CG       -26.9080  -55.1480  -46.9640 C.3    70  MET70       0.0595
     55  SD       -26.0920  -56.4860  -46.0820 S.3    70  MET70      -0.1393
     56  CE       -26.6670  -56.1700  -44.4100 C.3    70  MET70       0.0692
     57  N        -32.8210  -60.5270  -45.6280 N.3    73  ARG73      -0.1245
     58  CA       -32.8750  -61.3400  -44.4230 C.3    73  ARG73       0.1563
     59  C        -33.8540  -60.7860  -43.4000 C.2    73  ARG73       0.2260
     60  O        -34.0270  -61.3650  -42.3370 O.2    73  ARG73      -0.2867
     61  CB       -31.5000  -61.4360  -43.7790 C.3    73  ARG73       0.0307
     62  CG       -31.0590  -60.1710  -43.0840 C.3    73  ARG73       0.0489
     63  CD       -29.6800  -60.3530  -42.5020 C.3    73  ARG73       0.2205
     64  NE       -29.0800  -59.0760  -42.1420 N.pl3  73  ARG73      -0.0865
     65  CZ       -27.8380  -58.9380  -41.6920 C.cat  73  ARG73       0.5346
     66  NH1      -27.0560  -60.0020  -41.5480 N.pl3  73  ARG73       0.1354
     67  NH2      -27.3800  -57.7310  -41.3790 N.pl3  73  ARG73       0.1354
     68  N        -24.0560  -63.2150  -39.4450 N.3    89  ASP89      -0.1225
     69  CA       -23.4720  -62.9690  -40.7600 C.3    89  ASP89       0.1805
     70  C        -22.7520  -64.2670  -41.1570 C.2    89  ASP89       0.2598
     71  O        -22.3200  -65.0200  -40.2860 O.2    89  ASP89      -0.2718
     72  CB       -22.4920  -61.7880  -40.6970 C.3    89  ASP89       0.1424
     73  CG       -23.1940  -60.4570  -40.4170 C.2    89  ASP89       0.3668
     74  OD1      -24.4440  -60.3980  -40.4710 O.co2  89  ASP89      -0.2456
     75  OD2      -22.4900  -59.4560  -40.1550 O.co2  89  ASP89      -0.2456
     76  N        -22.6230  -64.5330  -42.4540 N.am   90  ASP90      -0.1960
     77  CA       -21.9870  -65.7660  -42.9030 C.3    90  ASP90       0.1840
     78  C        -20.4650  -65.7450  -42.8660 C.2    90  ASP90       0.2622
     79  O        -19.7990  -66.2430  -43.7770 O.2    90  ASP90      -0.2715
     80  CB       -22.4640  -66.1180  -44.3110 C.3    90  ASP90       0.1450
     81  CG       -22.0250  -65.1110  -45.3400 C.2    90  ASP90       0.3671
     82  OD1      -21.5980  -64.0090  -44.9380 O.co2  90  ASP90      -0.2456
     83  OD2      -22.1160  -65.4200  -46.5480 O.co2  90  ASP90      -0.2456
     84  N        -19.9130  -65.1760  -41.8030 N.am   91  ASP91      -0.1971
     85  CA       -18.4690  -65.1150  -41.6550 C.3    91  ASP91       0.1709
     86  C        -18.1400  -65.0780  -40.1710 C.2    91  ASP91       0.2293
     87  O        -17.0220  -64.7530  -39.7720 O.2    91  ASP91      -0.2864
     88  CB       -17.9280  -63.8770  -42.3550 C.3    91  ASP91       0.1436
     89  CG       -18.2210  -62.6090  -41.5980 C.2    91  ASP91       0.3671
     90  OD1      -19.2680  -62.5390  -40.9140 O.co2  91  ASP91      -0.2456
     91  OD2      -17.3970  -61.6770  -41.6990 O.co2  91  ASP91      -0.2456
     92  N        -27.4380  -50.2040  -49.0330 N.3   180  GLN180     -0.1245
     93  CA       -27.1230  -51.6120  -48.8300 C.3   180  GLN180      0.1566
     94  C        -26.2840  -51.6890  -47.5670 C.2   180  GLN180      0.2260
     95  O        -25.4060  -52.5450  -47.4220 O.2   180  GLN180     -0.2867
     96  CB       -26.3390  -52.1730  -50.0160 C.3   180  GLN180      0.0367
     97  CG       -27.2290  -52.5970  -51.1650 C.3   180  GLN180      0.0905
     98  CD       -28.2370  -53.6530  -50.7440 C.2   180  GLN180      0.2608
     99  OE1      -27.8620  -54.7250  -50.2630 O.2   180  GLN180     -0.2717
    100  NE2      -29.5220  -53.3540  -50.9190 N.am  180  GLN180     -0.0878
    101  N        -13.6150  -63.9360  -41.8030 N.3   212  GLU212     -0.1245
    102  CA       -13.4450  -63.0800  -42.9840 C.3   212  GLU212      0.1567
    103  C        -12.3370  -63.4430  -43.9630 C.2   212  GLU212      0.2260
    104  O        -12.5820  -63.6060  -45.1560 O.2   212  GLU212     -0.2867
    105  CB       -13.2070  -61.6410  -42.5630 C.3   212  GLU212      0.0388
    106  CG       -14.4480  -60.8290  -42.4350 C.3   212  GLU212      0.1160
    107  CD       -14.1220  -59.3930  -42.1450 C.2   212  GLU212      0.3649
    108  OE1      -13.4550  -59.1350  -41.1190 O.co2 212  GLU212     -0.2457
    109  OE2      -14.5250  -58.5260  -42.9480 O.co2 212  GLU212     -0.2457
    110  N        -15.1670  -62.1070  -51.9030 N.3   218  TYR218     -0.1241
    111  CA       -14.9810  -60.7540  -51.3910 C.3   218  TYR218      0.1605
    112  C        -14.4600  -60.6320  -49.9580 C.2   218  TYR218      0.2264
    113  O        -14.8220  -61.4000  -49.0590 O.2   218  TYR218     -0.2867
    114  CB       -16.2660  -59.9280  -51.5670 C.3   218  TYR218      0.0534
    115  CG       -17.3230  -60.1040  -50.4970 C.ar  218  TYR218     -0.0201
    116  CD1      -17.8320  -58.9950  -49.8120 C.ar  218  TYR218     -0.0009
    117  CD2      -17.8400  -61.3590  -50.1910 C.ar  218  TYR218     -0.0009
    118  CE1      -18.8280  -59.1330  -48.8530 C.ar  218  TYR218      0.0417
    119  CE2      -18.8390  -61.5070  -49.2320 C.ar  218  TYR218      0.0417
    120  CZ       -19.3270  -60.3910  -48.5700 C.ar  218  TYR218      0.1957
    121  OH       -20.3230  -60.5330  -47.6320 O.3   218  TYR218     -0.2866
    122  N        -15.0690  -58.4940  -47.6900 N.3   220  GLY220     -0.1210
    123  CA       -15.9970  -58.1110  -46.6420 C.3   220  GLY220      0.1956
    124  C        -16.4270  -56.6620  -46.7740 C.2   220  GLY220      0.2612
    125  O        -15.6330  -55.7910  -47.1340 O.2   220  GLY220     -0.2717
    126  N        -17.6850  -56.4030  -46.4470 N.am  221  MET221     -0.1965
    127  CA       -18.2750  -55.0770  -46.5540 C.3   221  MET221      0.1736
    128  C        -17.6250  -53.9220  -45.7670 C.2   221  MET221      0.2616
    129  O        -17.4380  -52.8330  -46.3230 O.2   221  MET221     -0.2715
    130  CB       -19.7610  -55.1720  -46.1920 C.3   221  MET221      0.0427
    131  CG       -20.6470  -54.2060  -46.9450 C.3   221  MET221      0.0599
    132  SD       -20.7090  -54.5760  -48.7080 S.3   221  MET221     -0.1393
    133  CE       -22.4760  -54.5100  -48.9970 C.3   221  MET221      0.0692
    134  N        -17.2740  -54.1420  -44.4950 N.am  222  TRP222     -0.1974
    135  CA       -16.6970  -53.0620  -43.6810 C.3   222  TRP222      0.1640
    136  C        -15.3110  -52.5500  -44.0650 C.2   222  TRP222      0.2290
    137  O        -14.7950  -51.6150  -43.4500 O.2   222  TRP222     -0.2864
    138  CB       -16.7210  -53.4140  -42.1760 C.3   222  TRP222      0.0576
    139  CG       -15.6650  -54.3790  -41.6640 C.ar  222  TRP222      0.0006
    140  CD1      -15.7770  -55.7380  -41.5500 C.ar  222  TRP222      0.0946
    141  CD2      -14.3750  -54.0420  -41.1230 C.ar  222  TRP222      0.0152
    142  NE1      -14.6470  -56.2640  -40.9650 N.ar  222  TRP222     -0.2442
    143  CE2      -13.7700  -55.2490  -40.6960 C.ar  222  TRP222      0.0810
    144  CE3      -13.6740  -52.8380  -40.9590 C.ar  222  TRP222      0.0012
    145  CZ2      -12.4960  -55.2870  -40.1150 C.ar  222  TRP222      0.0191
    146  CZ3      -12.4050  -52.8770  -40.3800 C.ar  222  TRP222      0.0001
    147  CH2      -11.8310  -54.0960  -39.9660 C.ar  222  TRP222      0.0015
    148  N        -17.4860  -47.1160  -45.8420 N.3   227  HIS227     -0.1241
    149  CA       -18.3140  -47.9090  -44.9420 C.3   227  HIS227      0.1621
    150  C        -18.7440  -47.1270  -43.7110 C.2   227  HIS227      0.2264
    151  O        -19.9160  -46.7800  -43.5610 O.2   227  HIS227     -0.2867
    152  CB       -17.5560  -49.1550  -44.4920 C.3   227  HIS227      0.0745
    153  CG       -18.2610  -49.9420  -43.4290 C.ar  227  HIS227      0.0817
    154  ND1      -19.4490  -50.6060  -43.6550 N.ar  227  HIS227     -0.2268
    155  CD2      -17.9420  -50.1710  -42.1320 C.ar  227  HIS227      0.1154
    156  CE1      -19.8310  -51.2100  -42.5440 C.ar  227  HIS227      0.1986
    157  NE2      -18.9350  -50.9610  -41.6050 N.ar  227  HIS227     -0.2212
    158  N        -22.1120  -45.0800  -42.4250 N.3   231  ARG231     -0.1245
    159  CA       -22.9160  -45.4010  -41.2630 C.3   231  ARG231      0.1563
    160  C        -23.2810  -44.1630  -40.4640 C.2   231  ARG231      0.2260
    161  O        -24.4080  -44.0530  -39.9780 O.2   231  ARG231     -0.2867
    162  CB       -22.1940  -46.4260  -40.3860 C.3   231  ARG231      0.0307
    163  CG       -22.1780  -47.8100  -41.0110 C.3   231  ARG231      0.0489
    164  CD       -22.0450  -48.8800  -39.9690 C.3   231  ARG231      0.2205
    165  NE       -22.4770  -50.1690  -40.4850 N.pl3 231  ARG231     -0.0865
    166  CZ       -23.0310  -51.1140  -39.7330 C.cat 231  ARG231      0.5346
    167  NH1      -23.2140  -50.9060  -38.4360 N.pl3 231  ARG231      0.1354
    168  NH2      -23.4150  -52.2610  -40.2780 N.pl3 231  ARG231      0.1354
@<TRIPOS>BOND
     1    21    20    1
     2    41    42    1
     3    18    20   ar
     4    18    16   ar
     5    20    19   ar
     6    45    42    1
     7    45    46    1
     8    36    35    2
     9    42    43    1
    10    35    34    1
    11    48    46   am
    12    16    15   ar
    13    46    47    2
    14    44    43    2
    15    19    17   ar
    16    34    33    1
    17    34    37    1
    18   110   111    1
    19    15    17   ar
    20    15    14    1
    21   114   111    1
    22   114   115    1
    23   111   112    1
    24    37    38    1
    25    97    98    1
    26    97    96    1
    27   100    98   am
    28    12    11    1
    29    12    13    2
    30    98    99    2
    31    39    38    2
    32    38    40   am
    33    22    23    1
    34   115   117   ar
    35   115   116   ar
    36    14    11    1
    37    11    10    1
    38   117   119   ar
    39    96    93    1
    40   112   113    2
    41   116   118   ar
    42    23    24    1
    43    23    26    1
    44   119   120   ar
    45    24    25    2
    46    92    93    1
    47   133   132    1
    48   118   120   ar
    49    93    94    1
    50    49    50    1
    51   132   131    1
    52   120   121    1
    53    26    27    1
    54    27    28    1
    55   122   123    1
    56    94    95    2
    57    50    53    1
    58    50    51    1
    59   125   124    2
    60    54    53    1
    61    54    55    1
    62   131   130    1
    63   124   123    1
    64   124   126   am
    65     8     7    2
    66     6     7    1
    67     6     5    1
    68    28    29    1
    69     7     9   am
    70   127   126    1
    71   127   130    1
    72   127   128    1
    73    83    81   ar
    74    51    52    2
    75    29    30    2
    76   129   128    2
    77    55    56    1
    78   148   149    1
    79     3     2    1
    80     3     4    2
    81   128   134   am
    82    57    58    1
    83    30    32    1
    84    30    31    1
    85    81    82   ar
    86    81    80    1
    87     2     5    1
    88     2     1    1
    89   104   103    2
    90   149   152    1
    91   149   150    1
    92   134   135    1
    93   152   153    1
    94    58    61    1
    95    58    59    1
    96    80    77    1
    97   136   135    1
    98   136   137    2
    99   103   102    1
   100    61    62    1
   101    79    78    2
   102   150   151    2
   103   135   138    1
   104   154   153   ar
   105   154   156   ar
   106   153   155   ar
   107    59    60    2
   108    62    63    1
   109   102   105    1
   110   102   101    1
   111   109   107   ar
   112    77    78    1
   113    77    76    1
   114    78    84   am
   115   105   106    1
   116   156   157   ar
   117    63    64    1
   118    76    70   am
   119   106   107    1
   120   158   159    1
   121    88    85    1
   122    88    89    1
   123   138   139    1
   124   107   108   ar
   125    64    65    2
   126   155   157   ar
   127    84    85    1
   128    91    89   ar
   129    65    66    1
   130    65    67    1
   131   139   140   ar
   132   139   141   ar
   133    85    86    1
   134    89    90   ar
   135   140   142   ar
   136   159   160    1
   137   159   162    1
   138    70    69    1
   139    70    71    2
   140   141   144   ar
   141   141   143   ar
   142   163   162    1
   143   163   164    1
   144   142   143   ar
   145   144   146   ar
   146    69    72    1
   147    69    68    1
   148    72    73    1
   149   143   145   ar
   150   165   164    1
   151   165   166    2
   152    74    73   ar
   153   160   161    2
   154    73    75   ar
   155   146   147   ar
   156   168   166    1
   157    86    87    2
   158   145   147   ar
   159   166   167    1
