@<TRIPOS>MOLECULE
tmp/1on8A00.pdb
 128 123 0 0 0
SMALL
GASTEIGER

@<TRIPOS>ATOM
      1  N        -24.0560  -63.2150  -39.4450 N.3    89  ASP89      -0.1239
      2  CA       -23.4720  -62.9690  -40.7600 C.3    89  ASP89       0.1674
      3  C        -22.7520  -64.2670  -41.1570 C.2    89  ASP89       0.2266
      4  O        -22.3200  -65.0200  -40.2860 O.2    89  ASP89      -0.2867
      5  CB       -22.4920  -61.7880  -40.6970 C.3    89  ASP89       0.1410
      6  CG       -23.1940  -60.4570  -40.4170 C.2    89  ASP89       0.3668
      7  OD1      -24.4440  -60.3980  -40.4710 O.co2  89  ASP89      -0.2456
      8  OD2      -22.4900  -59.4560  -40.1550 O.co2  89  ASP89      -0.2456
      9  N        -22.0290  -58.0060  -30.5100 N.3   117  VAL117     -0.1245
     10  CA       -21.3010  -56.8930  -31.1100 C.3   117  VAL117      0.1561
     11  C        -21.9870  -55.5780  -30.7750 C.2   117  VAL117      0.2260
     12  O        -22.9890  -55.2020  -31.3940 O.2   117  VAL117     -0.2867
     13  CB       -21.2300  -57.0630  -32.6320 C.3   117  VAL117      0.0252
     14  CG1      -20.3940  -55.9530  -33.2490 C.3   117  VAL117      0.0019
     15  CG2      -20.6380  -58.4220  -32.9620 C.3   117  VAL117      0.0019
     16  N        -22.1540  -51.3320  -30.2960 N.3   119  ARG119     -0.1245
     17  CA       -21.6730  -50.1130  -30.9660 C.3   119  ARG119      0.1563
     18  C        -22.4230  -48.9110  -30.4010 C.2   119  ARG119      0.2260
     19  O        -23.4350  -49.0560  -29.7030 O.2   119  ARG119     -0.2867
     20  CB       -21.9180  -50.1720  -32.4750 C.3   119  ARG119      0.0307
     21  CG       -21.1310  -51.2370  -33.2140 C.3   119  ARG119      0.0489
     22  CD       -19.6960  -50.8030  -33.4510 C.3   119  ARG119      0.2205
     23  NE       -18.9650  -51.7990  -34.2300 N.pl3 119  ARG119     -0.0865
     24  CZ       -18.3870  -52.8800  -33.7140 C.cat 119  ARG119      0.5346
     25  NH1      -18.4410  -53.1120  -32.4090 N.pl3 119  ARG119      0.1354
     26  NH2      -17.7700  -53.7380  -34.5110 N.pl3 119  ARG119      0.1354
     27  N        -21.1450  -42.2710  -36.0480 N.3   131  TYR131     -0.1241
     28  CA       -21.1470  -43.7030  -35.7590 C.3   131  TYR131      0.1605
     29  C        -19.7800  -44.2150  -35.3360 C.2   131  TYR131      0.2264
     30  O        -18.7640  -43.8520  -35.9240 O.2   131  TYR131     -0.2867
     31  CB       -21.5850  -44.4810  -36.9950 C.3   131  TYR131      0.0534
     32  CG       -21.5550  -45.9860  -36.8280 C.ar  131  TYR131     -0.0201
     33  CD1      -22.7160  -46.6920  -36.5250 C.ar  131  TYR131     -0.0009
     34  CD2      -20.3660  -46.7090  -36.9850 C.ar  131  TYR131     -0.0009
     35  CE1      -22.7040  -48.0820  -36.3860 C.ar  131  TYR131      0.0417
     36  CE2      -20.3470  -48.1020  -36.8420 C.ar  131  TYR131      0.0417
     37  CZ       -21.5220  -48.7780  -36.5440 C.ar  131  TYR131      0.1957
     38  OH       -21.5270  -50.1410  -36.3980 O.3   131  TYR131     -0.2866
     39  N        -15.8040  -48.1810  -29.2530 N.3   134  PHE134     -0.1227
     40  CA       -15.0940  -47.7500  -28.0570 C.3   134  PHE134      0.1736
     41  C        -13.8920  -46.8300  -28.2930 C.2   134  PHE134      0.2595
     42  O        -13.2270  -46.4200  -27.3300 O.2   134  PHE134     -0.2718
     43  CB       -14.6640  -48.9810  -27.2520 C.3   134  PHE134      0.0547
     44  CG       -13.3380  -49.5570  -27.6710 C.ar  134  PHE134     -0.0202
     45  CD1      -12.2340  -49.4780  -26.8260 C.ar  134  PHE134     -0.0042
     46  CD2      -13.1860  -50.1740  -28.9070 C.ar  134  PHE134     -0.0042
     47  CE1      -11.0000  -50.0050  -27.2080 C.ar  134  PHE134     -0.0003
     48  CE2      -11.9480  -50.7070  -29.2970 C.ar  134  PHE134     -0.0003
     49  CZ       -10.8590  -50.6220  -28.4480 C.ar  134  PHE134     -0.0000
     50  N        -13.6090  -46.5100  -29.5590 N.am  135  GLU135     -0.1979
     51  CA       -12.4860  -45.6200  -29.8890 C.3   135  GLU135      0.1602
     52  C        -12.9420  -44.1760  -29.7310 C.2   135  GLU135      0.2287
     53  O        -12.1250  -43.2600  -29.7000 O.2   135  GLU135     -0.2864
     54  CB       -11.9870  -45.8100  -31.3350 C.3   135  GLU135      0.0415
     55  CG       -12.4420  -47.0630  -32.0630 C.3   135  GLU135      0.1163
     56  CD       -13.8970  -47.0070  -32.5050 C.2   135  GLU135      0.3649
     57  OE1      -14.3110  -45.9780  -33.0820 O.co2 135  GLU135     -0.2457
     58  OE2      -14.6200  -48.0060  -32.2860 O.co2 135  GLU135     -0.2457
     59  N        -25.3880  -54.8950  -33.0890 N.3   151  LEU151     -0.1245
     60  CA       -25.5430  -55.2750  -34.4880 C.3   151  LEU151      0.1561
     61  C        -26.2870  -56.6020  -34.6230 C.2   151  LEU151      0.2260
     62  O        -25.9210  -57.5980  -34.0020 O.2   151  LEU151     -0.2867
     63  CB       -24.1630  -55.3480  -35.1610 C.3   151  LEU151      0.0270
     64  CG       -23.3260  -54.0660  -35.0290 C.3   151  LEU151      0.0019
     65  CD1      -22.0470  -54.1830  -35.8320 C.3   151  LEU151      0.0001
     66  CD2      -24.1400  -52.8810  -35.5060 C.3   151  LEU151      0.0001
     67  N        -29.0620  -52.8620  -39.8660 N.3   184  ASP184     -0.1239
     68  CA       -29.0480  -53.1610  -38.4480 C.3   184  ASP184      0.1674
     69  C        -29.2750  -51.8860  -37.6420 C.2   184  ASP184      0.2266
     70  O        -29.8210  -51.9200  -36.5460 O.2   184  ASP184     -0.2867
     71  CB       -27.7220  -53.8250  -38.0750 C.3   184  ASP184      0.1410
     72  CG       -26.5290  -53.1070  -38.6530 C.2   184  ASP184      0.3668
     73  OD1      -25.4200  -53.6780  -38.6190 O.co2 184  ASP184     -0.2456
     74  OD2      -26.7000  -51.9700  -39.1350 O.co2 184  ASP184     -0.2456
     75  N        -14.2070  -64.5010  -36.1310 N.3   210  ASN210     -0.1240
     76  CA       -14.5870  -63.9720  -37.4280 C.3   210  ASN210      0.1653
     77  C        -13.7210  -64.6440  -38.4920 C.2   210  ASN210      0.2266
     78  O        -12.4970  -64.5610  -38.4340 O.2   210  ASN210     -0.2867
     79  CB       -14.3830  -62.4590  -37.4470 C.3   210  ASN210      0.1155
     80  CG       -14.9850  -61.8170  -38.6640 C.2   210  ASN210      0.2627
     81  OD1      -14.4690  -61.9580  -39.7640 O.2   210  ASN210     -0.2716
     82  ND2      -16.1010  -61.1210  -38.4790 N.am  210  ASN210     -0.0877
     83  N        -17.2740  -54.1420  -44.4950 N.3   222  TRP222     -0.1241
     84  CA       -16.6970  -53.0620  -43.6810 C.3   222  TRP222      0.1605
     85  C        -15.3110  -52.5500  -44.0650 C.2   222  TRP222      0.2264
     86  O        -14.7950  -51.6150  -43.4500 O.2   222  TRP222     -0.2867
     87  CB       -16.7210  -53.4140  -42.1760 C.3   222  TRP222      0.0550
     88  CG       -15.6650  -54.3790  -41.6640 C.ar  222  TRP222      0.0003
     89  CD1      -15.7770  -55.7380  -41.5500 C.ar  222  TRP222      0.0946
     90  CD2      -14.3750  -54.0420  -41.1230 C.ar  222  TRP222      0.0152
     91  NE1      -14.6470  -56.2640  -40.9650 N.ar  222  TRP222     -0.2442
     92  CE2      -13.7700  -55.2490  -40.6960 C.ar  222  TRP222      0.0810
     93  CE3      -13.6740  -52.8380  -40.9590 C.ar  222  TRP222      0.0012
     94  CZ2      -12.4960  -55.2870  -40.1150 C.ar  222  TRP222      0.0191
     95  CZ3      -12.4050  -52.8770  -40.3800 C.ar  222  TRP222      0.0001
     96  CH2      -11.8310  -54.0960  -39.9660 C.ar  222  TRP222      0.0015
     97  N        -17.4860  -47.1160  -45.8420 N.3   227  HIS227     -0.1226
     98  CA       -18.3140  -47.9090  -44.9420 C.3   227  HIS227      0.1752
     99  C        -18.7440  -47.1270  -43.7110 C.2   227  HIS227      0.2596
    100  O        -19.9160  -46.7800  -43.5610 O.2   227  HIS227     -0.2718
    101  CB       -17.5560  -49.1550  -44.4920 C.3   227  HIS227      0.0759
    102  CG       -18.2610  -49.9420  -43.4290 C.ar  227  HIS227      0.0818
    103  ND1      -19.4490  -50.6060  -43.6550 N.ar  227  HIS227     -0.2268
    104  CD2      -17.9420  -50.1710  -42.1320 C.ar  227  HIS227      0.1154
    105  CE1      -19.8310  -51.2100  -42.5440 C.ar  227  HIS227      0.1986
    106  NE2      -18.9350  -50.9610  -41.6050 N.ar  227  HIS227     -0.2212
    107  N        -17.7880  -46.8580  -42.8260 N.am  228  PHE228     -0.1976
    108  CA       -18.0690  -46.1450  -41.5860 C.3   228  PHE228      0.1639
    109  C        -18.7100  -44.7880  -41.8130 C.2   228  PHE228      0.2290
    110  O        -19.7040  -44.4380  -41.1650 O.2   228  PHE228     -0.2864
    111  CB       -16.7820  -46.0220  -40.7740 C.3   228  PHE228      0.0560
    112  CG       -16.3330  -47.3310  -40.1790 C.ar  228  PHE228     -0.0200
    113  CD1      -16.9690  -47.8510  -39.0540 C.ar  228  PHE228     -0.0042
    114  CD2      -15.3220  -48.0760  -40.7790 C.ar  228  PHE228     -0.0042
    115  CE1      -16.6070  -49.0920  -38.5410 C.ar  228  PHE228     -0.0003
    116  CE2      -14.9540  -49.3180  -40.2710 C.ar  228  PHE228     -0.0003
    117  CZ       -15.5960  -49.8270  -39.1540 C.ar  228  PHE228     -0.0000
    118  N        -22.1120  -45.0800  -42.4250 N.3   231  ARG231     -0.1245
    119  CA       -22.9160  -45.4010  -41.2630 C.3   231  ARG231      0.1563
    120  C        -23.2810  -44.1630  -40.4640 C.2   231  ARG231      0.2260
    121  O        -24.4080  -44.0530  -39.9780 O.2   231  ARG231     -0.2867
    122  CB       -22.1940  -46.4260  -40.3860 C.3   231  ARG231      0.0307
    123  CG       -22.1780  -47.8100  -41.0110 C.3   231  ARG231      0.0489
    124  CD       -22.0450  -48.8800  -39.9690 C.3   231  ARG231      0.2205
    125  NE       -22.4770  -50.1690  -40.4850 N.pl3 231  ARG231     -0.0865
    126  CZ       -23.0310  -51.1140  -39.7330 C.cat 231  ARG231      0.5346
    127  NH1      -23.2140  -50.9060  -38.4360 N.pl3 231  ARG231      0.1354
    128  NH2      -23.4150  -52.2610  -40.2780 N.pl3 231  ARG231      0.1354
@<TRIPOS>BOND
     1    97    98    1
     2    98   101    1
     3    98    99    1
     4    83    84    1
     5   101   102    1
     6    85    84    1
     7    85    86    2
     8    99   100    2
     9    99   107   am
    10    84    87    1
    11   103   102   ar
    12   103   105   ar
    13   102   104   ar
    14   107   108    1
    15   105   106   ar
    16   118   119    1
    17    87    88    1
    18   104   106   ar
    19   109   108    1
    20   109   110    2
    21    88    89   ar
    22    88    90   ar
    23   108   111    1
    24    89    91   ar
    25   119   120    1
    26   119   122    1
    27     3     2    1
    28     3     4    2
    29    90    93   ar
    30    90    92   ar
    31   123   122    1
    32   123   124    1
    33    91    92   ar
    34    93    95   ar
    35   114   116   ar
    36   114   112   ar
    37   111   112    1
    38     2     5    1
    39     2     1    1
    40     5     6    1
    41    92    94   ar
    42   125   124    1
    43   125   126    2
    44     7     6   ar
    45   120   121    2
    46     6     8   ar
    47    95    96   ar
    48   128   126    1
    49   116   117   ar
    50   112   113   ar
    51    94    96   ar
    52    67    68    1
    53    81    80    2
    54   126   127    1
    55   117   115   ar
    56    74    72   ar
    57   113   115   ar
    58    80    82   am
    59    80    79    1
    60    72    73   ar
    61    72    71    1
    62    77    78    2
    63    77    76    1
    64    68    71    1
    65    68    69    1
    66    69    70    2
    67    79    76    1
    68    76    75    1
    69    31    32    1
    70    31    28    1
    71    34    36   ar
    72    34    32   ar
    73    36    37   ar
    74    32    33   ar
    75    37    38    1
    76    37    35   ar
    77    33    35   ar
    78    27    28    1
    79    30    29    2
    80    65    64    1
    81    28    29    1
    82    66    64    1
    83    63    64    1
    84    63    60    1
    85    61    60    1
    86    61    62    2
    87    26    24    1
    88    60    59    1
    89    23    24    2
    90    23    22    1
    91    24    25    1
    92    22    21    1
    93    14    13    1
    94    21    20    1
    95    57    56   ar
    96    15    13    1
    97    13    10    1
    98    56    58   ar
    99    56    55    1
   100    20    17    1
   101    55    54    1
   102    12    11    2
   103    54    51    1
   104    10    11    1
   105    10     9    1
   106    17    18    1
   107    17    16    1
   108    18    19    2
   109    51    52    1
   110    51    50    1
   111    52    53    2
   112    50    41   am
   113    48    46   ar
   114    48    49   ar
   115    39    40    1
   116    46    44   ar
   117    49    47   ar
   118    41    40    1
   119    41    42    2
   120    40    43    1
   121    44    43    1
   122    44    45   ar
   123    47    45   ar
