@<TRIPOS>MOLECULE
tmp/1on9E00.pdb
 90 84 0 0 0
SMALL
GASTEIGER

@<TRIPOS>ATOM
      1  N         -5.7700   55.1760   37.2510 N.3    29  ARG29      -0.1231
      2  CA        -6.6730   54.4670   36.3560 C.3    29  ARG29       0.1694
      3  C         -6.0270   53.2540   35.7080 C.2    29  ARG29       0.2591
      4  O         -6.6440   52.1970   35.6060 O.2    29  ARG29      -0.2718
      5  CB        -7.1920   55.3780   35.2450 C.3    29  ARG29       0.0321
      6  CG        -8.1850   54.6630   34.3300 C.3    29  ARG29       0.0489
      7  CD        -8.4740   55.4360   33.0530 C.3    29  ARG29       0.2205
      8  NE        -7.5360   55.1620   31.9540 N.pl3  29  ARG29      -0.0865
      9  CZ        -6.3140   55.6810   31.8280 C.cat  29  ARG29       0.5346
     10  NH1       -5.8310   56.5250   32.7370 N.pl3  29  ARG29       0.1354
     11  NH2       -5.5750   55.3690   30.7680 N.pl3  29  ARG29       0.1354
     12  N         -4.7950   53.4020   35.2470 N.am   30  ARG30      -0.1980
     13  CA        -4.1440   52.2640   34.6060 C.3    30  ARG30       0.1597
     14  C         -3.8530   51.1560   35.6110 C.2    30  ARG30       0.2287
     15  O         -3.9180   49.9660   35.2770 O.2    30  ARG30      -0.2864
     16  CB        -2.8870   52.7190   33.8880 C.3    30  ARG30       0.0334
     17  CG        -3.2050   53.5750   32.6720 C.3    30  ARG30       0.0492
     18  CD        -1.9830   53.8010   31.8050 C.3    30  ARG30       0.2205
     19  NE        -2.3100   54.5530   30.5980 N.pl3  30  ARG30      -0.0865
     20  CZ        -2.2650   55.8800   30.5070 C.cat  30  ARG30       0.5346
     21  NH1       -1.8970   56.6120   31.5580 N.pl3  30  ARG30       0.1354
     22  NH2       -2.5910   56.4770   29.3670 N.pl3  30  ARG30       0.1354
     23  N         -6.9990   49.3630   36.0870 N.3    33  LYS33      -0.1245
     24  CA        -7.2630   48.4660   34.9790 C.3    33  LYS33       0.1561
     25  C         -6.4380   47.1890   35.1500 C.2    33  LYS33       0.2260
     26  O         -6.9320   46.0800   34.9330 O.2    33  LYS33      -0.2867
     27  CB        -6.9190   49.1280   33.6440 C.3    33  LYS33       0.0271
     28  CG        -7.1360   48.2030   32.4490 C.3    33  LYS33       0.0035
     29  CD        -6.5030   48.7680   31.1770 C.3    33  LYS33       0.0206
     30  CE        -6.3430   47.6840   30.1110 C.3    33  LYS33       0.1093
     31  NZ        -5.5380   48.1470   28.9420 N.3    33  LYS33      -0.1314
     32  N          3.3660   47.4350   32.7690 N.3   100  PHE100     -0.1241
     33  CA         2.4180   47.5290   31.6760 C.3   100  PHE100      0.1605
     34  C          1.6170   48.8360   31.7190 C.2   100  PHE100      0.2264
     35  O          1.0870   49.2710   30.6980 O.2   100  PHE100     -0.2867
     36  CB         1.4630   46.3310   31.7280 C.3   100  PHE100      0.0534
     37  CG         0.5230   46.2560   30.5480 C.ar  100  PHE100     -0.0203
     38  CD1        0.9700   45.7980   29.3090 C.ar  100  PHE100     -0.0042
     39  CD2       -0.7940   46.6980   30.6660 C.ar  100  PHE100     -0.0042
     40  CE1        0.1190   45.7850   28.2010 C.ar  100  PHE100     -0.0003
     41  CE2       -1.6590   46.6900   29.5560 C.ar  100  PHE100     -0.0003
     42  CZ        -1.1990   46.2340   28.3260 C.ar  100  PHE100     -0.0000
     43  N          3.1680   53.0810   29.0920 N.3   103  MET103     -0.1230
     44  CA         3.2620   52.8450   27.6550 C.3   103  MET103      0.1702
     45  C          3.1110   51.3550   27.3350 C.2   103  MET103      0.2592
     46  O          3.8560   50.7940   26.5210 O.2   103  MET103     -0.2718
     47  CB         4.5830   53.3840   27.0910 C.3   103  MET103      0.0401
     48  CG         4.5950   54.9030   26.8320 C.3   103  MET103      0.0596
     49  SD         6.0130   55.4450   25.7920 S.3   103  MET103     -0.1393
     50  CE         5.4250   55.0440   24.1410 C.3   103  MET103      0.0692
     51  N          2.1220   50.7240   27.9670 N.am  104  GLY104     -0.1957
     52  CA         1.8640   49.3090   27.7410 C.3   104  GLY104      0.1869
     53  C          3.0640   48.4210   27.9870 C.2   104  GLY104      0.2309
     54  O          3.2070   47.3690   27.3590 O.2   104  GLY104     -0.2863
     55  N          5.7590   48.6100   26.8980 N.3   106  SER106     -0.1217
     56  CA         6.5250   48.4760   25.6530 C.3   106  SER106      0.1889
     57  C          8.0320   48.5480   25.9360 C.2   106  SER106      0.2288
     58  O          8.4730   49.3140   26.7920 O.2   106  SER106     -0.2866
     59  CB         6.1230   49.5740   24.6630 C.3   106  SER106      0.2089
     60  OG         6.4590   50.8530   25.1630 O.3   106  SER106     -0.2183
     61  N          3.3210   44.9770   26.0490 N.3   136  GLY136     -0.1210
     62  CA         2.5610   44.9470   24.8190 C.3   136  GLY136      0.1956
     63  C          3.4740   44.8160   23.6090 C.2   136  GLY136      0.2612
     64  O          2.9970   44.7850   22.4860 O.2   136  GLY136     -0.2717
     65  N          4.7860   44.7540   23.8220 N.am  137  GLY137     -0.1942
     66  CA         5.6880   44.6000   22.6890 C.3   137  GLY137      0.2014
     67  C          6.7570   45.6630   22.5370 C.2   137  GLY137      0.2638
     68  O          7.1270   46.3280   23.4970 O.2   137  GLY137     -0.2714
     69  N          7.2550   45.8200   21.3130 N.am  138  ALA138     -0.1977
     70  CA         8.2930   46.7960   21.0330 C.3   138  ALA138      0.1597
     71  C          7.7400   48.2020   21.1720 C.2   138  ALA138      0.2287
     72  O          6.5460   48.4320   20.9870 O.2   138  ALA138     -0.2864
     73  CB         8.8240   46.5920   19.6180 C.3   138  ALA138      0.0319
     74  N          7.3640   50.9320   19.3550 N.3   140  ILE140     -0.1231
     75  CA         7.4460   51.3150   17.9480 C.3   140  ILE140      0.1692
     76  C          7.9570   52.7240   17.7100 C.2   140  ILE140      0.2591
     77  O          8.7120   52.9650   16.7600 O.2   140  ILE140     -0.2718
     78  CB         6.0670   51.1320   17.2810 C.3   140  ILE140      0.0266
     79  CG1        5.6200   49.6750   17.4580 C.3   140  ILE140      0.0019
     80  CG2        6.1480   51.4750   15.7850 C.3   140  ILE140      0.0020
     81  CD1        4.1760   49.4260   17.0700 C.3   140  ILE140      0.0001
     82  N          7.5460   53.6490   18.5740 N.am  141  GLN141     -0.1979
     83  CA         7.9600   55.0410   18.4590 C.3   141  GLN141      0.1601
     84  C          9.4770   55.1920   18.4980 C.2   141  GLN141      0.2287
     85  O         10.0110   56.1860   18.0120 O.2   141  GLN141     -0.2864
     86  CB         7.3590   55.8940   19.5910 C.3   141  GLN141      0.0394
     87  CG         5.8500   56.0530   19.5580 C.3   141  GLN141      0.0908
     88  CD         5.1070   54.9360   20.2760 C.2   141  GLN141      0.2608
     89  OE1        3.9220   55.0710   20.5800 O.2   141  GLN141     -0.2717
     90  NE2        5.7940   53.8270   20.5420 N.am  141  GLN141     -0.0878
@<TRIPOS>BOND
     1    80    78    1
     2    77    76    2
     3    81    79    1
     4    78    79    1
     5    78    75    1
     6    76    75    1
     7    76    82   am
     8    75    74    1
     9    85    84    2
    10    83    84    1
    11    83    82    1
    12    83    86    1
    13    87    86    1
    14    87    88    1
    15    73    70    1
    16    88    90   am
    17    88    89    2
    18    72    71    2
    19    70    71    1
    20    70    69    1
    21    69    67   am
    22    64    63    2
    23    67    66    1
    24    67    68    2
    25    66    65    1
    26    63    65   am
    27    63    62    1
    28    50    49    1
    29    59    60    1
    30    59    56    1
    31    62    61    1
    32    56    57    1
    33    56    55    1
    34    49    48    1
    35    57    58    2
    36    46    45    2
    37    48    47    1
    38    47    44    1
    39    45    44    1
    40    45    51   am
    41    54    53    2
    42    44    43    1
    43    52    51    1
    44    52    53    1
    45    40    42   ar
    46    40    38   ar
    47    42    41   ar
    48    31    30    1
    49    38    37   ar
    50    22    20    1
    51    41    39   ar
    52    30    29    1
    53    20    19    2
    54    20    21    1
    55    37    39   ar
    56    37    36    1
    57    19    18    1
    58    35    34    2
    59    11     9    1
    60    29    28    1
    61    33    34    1
    62    33    36    1
    63    33    32    1
    64    18    17    1
    65     9     8    2
    66     9    10    1
    67     8     7    1
    68    28    27    1
    69    17    16    1
    70     7     6    1
    71    27    24    1
    72    16    13    1
    73     6     5    1
    74    13    12    1
    75    13    14    1
    76    26    25    2
    77    24    25    1
    78    24    23    1
    79     5     2    1
    80    12     3   am
    81    15    14    2
    82     4     3    2
    83     3     2    1
    84     2     1    1
