@<TRIPOS>MOLECULE
tmp/1on9D00.pdb
 95 87 0 0 0
SMALL
GASTEIGER

@<TRIPOS>ATOM
      1  N         32.6620  -25.0660   54.1690 N.3    28  ARG28      -0.1231
      2  CA        33.9390  -25.7550   54.3140 C.3    28  ARG28       0.1694
      3  C         35.1130  -24.7940   54.1030 C.2    28  ARG28       0.2591
      4  O         35.9680  -24.6370   54.9810 O.2    28  ARG28      -0.2718
      5  CB        34.0400  -26.9170   53.3180 C.3    28  ARG28       0.0321
      6  CG        35.3380  -27.7140   53.4350 C.3    28  ARG28       0.0489
      7  CD        35.4820  -28.7760   52.3360 C.3    28  ARG28       0.2205
      8  NE        36.5390  -28.4550   51.3710 N.pl3  28  ARG28      -0.0865
      9  CZ        36.4190  -27.5830   50.3710 C.cat  28  ARG28       0.5346
     10  NH1       35.2770  -26.9280   50.1840 N.pl3  28  ARG28       0.1354
     11  NH2       37.4440  -27.3630   49.5560 N.pl3  28  ARG28       0.1354
     12  N         35.1560  -24.1510   52.9390 N.am   29  ARG29      -0.1980
     13  CA        36.2350  -23.2110   52.6440 C.3    29  ARG29       0.1597
     14  C         36.2590  -22.0760   53.6590 C.2    29  ARG29       0.2287
     15  O         37.3300  -21.6250   54.0670 O.2    29  ARG29      -0.2864
     16  CB        36.0790  -22.6600   51.2310 C.3    29  ARG29       0.0334
     17  CG        36.1790  -23.7210   50.1570 C.3    29  ARG29       0.0492
     18  CD        35.7380  -23.1540   48.8340 C.3    29  ARG29       0.2205
     19  NE        35.6770  -24.1590   47.7830 N.pl3  29  ARG29      -0.0865
     20  CZ        36.7290  -24.8290   47.3350 C.cat  29  ARG29       0.5346
     21  NH1       37.9270  -24.5990   47.8570 N.pl3  29  ARG29       0.1354
     22  NH2       36.5890  -25.7130   46.3520 N.pl3  29  ARG29       0.1354
     23  N         37.7540  -23.3850   56.6750 N.3    32  LYS32      -0.1245
     24  CA        39.1870  -23.5200   56.4200 C.3    32  LYS32       0.1561
     25  C         39.8670  -22.1740   56.6270 C.2    32  LYS32       0.2260
     26  O         40.8970  -22.0840   57.2920 O.2    32  LYS32      -0.2867
     27  CB        39.4180  -24.0080   54.9890 C.3    32  LYS32       0.0271
     28  CG        40.8730  -24.1830   54.6020 C.3    32  LYS32       0.0035
     29  CD        40.9850  -24.7510   53.1870 C.3    32  LYS32       0.0206
     30  CE        42.4290  -24.7640   52.6880 C.3    32  LYS32       0.1093
     31  NZ        43.3330  -25.5610   53.5650 N.3    32  LYS32      -0.1314
     32  N         42.4770  -21.0520   59.8360 N.3    36  GLN36      -0.1245
     33  CA        43.8180  -20.5330   59.5880 C.3    36  GLN36       0.1566
     34  C         44.0400  -19.2000   60.2930 C.2    36  GLN36       0.2260
     35  O         45.0620  -18.5310   60.0900 O.2    36  GLN36      -0.2867
     36  CB        44.0590  -20.3810   58.0860 C.3    36  GLN36       0.0367
     37  CG        43.7980  -21.6540   57.2890 C.3    36  GLN36       0.0905
     38  CD        44.1110  -21.4910   55.8110 C.2    36  GLN36       0.2608
     39  OE1       43.9340  -20.4100   55.2420 O.2    36  GLN36      -0.2717
     40  NE2       44.5650  -22.5680   55.1780 N.am   36  GLN36      -0.0878
     41  N         39.4540  -15.4390   49.1760 N.3    99  PHE99      -0.1241
     42  CA        40.2470  -16.6340   48.9190 C.3    99  PHE99       0.1605
     43  C         39.3990  -17.8940   48.7780 C.2    99  PHE99       0.2264
     44  O         39.8140  -18.8610   48.1220 O.2    99  PHE99      -0.2867
     45  CB        41.2720  -16.8310   50.0440 C.3    99  PHE99       0.0534
     46  CG        42.2570  -17.9340   49.7750 C.ar   99  PHE99      -0.0203
     47  CD1       43.2800  -17.7610   48.8450 C.ar   99  PHE99      -0.0042
     48  CD2       42.1260  -19.1730   50.4090 C.ar   99  PHE99      -0.0042
     49  CE1       44.1590  -18.8040   48.5380 C.ar   99  PHE99      -0.0003
     50  CE2       42.9980  -20.2230   50.1120 C.ar   99  PHE99      -0.0003
     51  CZ        44.0150  -20.0410   49.1730 C.ar   99  PHE99      -0.0000
     52  N         37.6970  -19.7740   44.2250 N.3   102  MET102     -0.1230
     53  CA        38.7800  -20.1040   43.3020 C.3   102  MET102      0.1702
     54  C         40.1050  -19.5820   43.8290 C.2   102  MET102      0.2592
     55  O         40.8930  -18.9740   43.0960 O.2   102  MET102     -0.2718
     56  CB        38.5120  -19.5470   41.8980 C.3   102  MET102      0.0401
     57  CG        37.4220  -20.2850   41.1610 C.3   102  MET102      0.0596
     58  SD        37.3940  -19.8920   39.4050 S.3   102  MET102     -0.1393
     59  CE        38.7940  -20.8790   38.8120 C.3   102  MET102      0.0692
     60  N         40.3320  -19.8190   45.1170 N.am  103  GLY103     -0.1957
     61  CA        41.5640  -19.4010   45.7540 C.3   103  GLY103      0.1869
     62  C         41.8420  -17.9240   45.6140 C.2   103  GLY103      0.2309
     63  O         42.9910  -17.5000   45.7010 O.2   103  GLY103     -0.2863
     64  N         41.8370  -16.2880   43.0460 N.3   105  SER105     -0.1217
     65  CA        42.5830  -16.0190   41.8210 C.3   105  SER105      0.1889
     66  C         42.0810  -14.7440   41.1420 C.2   105  SER105      0.2288
     67  O         40.8900  -14.4310   41.1910 O.2   105  SER105     -0.2866
     68  CB        42.5160  -17.2100   40.8520 C.3   105  SER105      0.2089
     69  OG        41.1890  -17.6110   40.5610 O.3   105  SER105     -0.2183
     70  N         45.5740  -16.6520   45.5140 N.3   135  GLY135     -0.1225
     71  CA        46.5600  -17.6410   45.1140 C.3   135  GLY135      0.1811
     72  C         47.2300  -17.2670   43.7950 C.2   135  GLY135      0.2280
     73  O         48.0210  -18.0330   43.2460 O.2   135  GLY135     -0.2866
     74  N         47.2320  -15.6100   39.6460 N.3   137  ALA137     -0.1245
     75  CA        46.4740  -15.4330   38.4240 C.3   137  ALA137      0.1562
     76  C         45.4710  -16.5590   38.2950 C.2   137  ALA137      0.2260
     77  O         45.6370  -17.6210   38.9060 O.2   137  ALA137     -0.2867
     78  CB        47.4150  -15.4310   37.2250 C.3   137  ALA137      0.0290
     79  N         44.7020  -18.9170   35.9890 N.3   139  ILE139     -0.1231
     80  CA        45.2370  -19.5280   34.7860 C.3   139  ILE139      0.1692
     81  C         44.1710  -19.9610   33.8030 C.2   139  ILE139      0.2591
     82  O         44.3830  -19.9000   32.6000 O.2   139  ILE139     -0.2718
     83  CB        46.1170  -20.7350   35.1380 C.3   139  ILE139      0.0266
     84  CG1       47.2020  -20.3020   36.1220 C.3   139  ILE139      0.0019
     85  CG2       46.7510  -21.3010   33.8820 C.3   139  ILE139      0.0020
     86  CD1       48.1070  -19.1960   35.6010 C.3   139  ILE139      0.0001
     87  N         43.0210  -20.3930   34.3060 N.am  140  GLN140     -0.1979
     88  CA        41.9520  -20.8270   33.4180 C.3   140  GLN140      0.1601
     89  C         41.5470  -19.7390   32.4360 C.2   140  GLN140      0.2287
     90  O         40.9890  -20.0400   31.3770 O.2   140  GLN140     -0.2864
     91  CB        40.7030  -21.2320   34.2090 C.3   140  GLN140      0.0394
     92  CG        40.7820  -22.5500   34.9480 C.3   140  GLN140      0.0908
     93  CD        41.3680  -22.4170   36.3300 C.2   140  GLN140      0.2608
     94  OE1       41.3010  -23.3540   37.1230 O.2   140  GLN140     -0.2717
     95  NE2       41.9520  -21.2550   36.6320 N.am  140  GLN140     -0.0878
@<TRIPOS>BOND
     1    90    89    2
     2    89    88    1
     3    82    81    2
     4    88    91    1
     5    88    87    1
     6    81    87   am
     7    81    80    1
     8    85    83    1
     9    91    92    1
    10    80    83    1
    11    80    79    1
    12    92    93    1
    13    83    84    1
    14    86    84    1
    15    93    95   am
    16    93    94    2
    17    78    75    1
    18    76    75    1
    19    76    77    2
    20    75    74    1
    21    59    58    1
    22    58    57    1
    23    69    68    1
    24    68    65    1
    25    66    67    2
    26    66    65    1
    27    57    56    1
    28    65    64    1
    29    56    53    1
    30    55    54    2
    31    73    72    2
    32    53    54    1
    33    53    52    1
    34    72    71    1
    35    54    60   am
    36    71    70    1
    37    60    61    1
    38    62    63    2
    39    62    61    1
    40    22    20    1
    41    20    19    2
    42    20    21    1
    43    19    18    1
    44    44    43    2
    45    49    47   ar
    46    49    51   ar
    47    43    42    1
    48    18    17    1
    49    47    46   ar
    50    42    41    1
    51    42    45    1
    52    51    50   ar
    53    11     9    1
    54    46    45    1
    55    46    48   ar
    56    50    48   ar
    57    17    16    1
    58    10     9    1
    59     9     8    2
    60    16    13    1
    61     8     7    1
    62     7     6    1
    63    13    12    1
    64    13    14    1
    65    30    29    1
    66    30    31    1
    67    12     3   am
    68    29    28    1
    69     5     6    1
    70     5     2    1
    71    14    15    2
    72     3     2    1
    73     3     4    2
    74     1     2    1
    75    28    27    1
    76    27    24    1
    77    40    38   am
    78    39    38    2
    79    38    37    1
    80    24    25    1
    81    24    23    1
    82    25    26    2
    83    37    36    1
    84    36    33    1
    85    33    32    1
    86    33    34    1
    87    35    34    2
