@<TRIPOS>MOLECULE
tmp/1on9C00.pdb
 99 92 0 0 0
SMALL
GASTEIGER

@<TRIPOS>ATOM
      1  N         35.5730   76.2790    4.0530 N.3    27  ARG27      -0.1231
      2  CA        36.0910   77.4270    4.7930 C.3    27  ARG27       0.1694
      3  C         36.8250   76.9980    6.0680 C.2    27  ARG27       0.2591
      4  O         37.9110   77.4990    6.3670 O.2    27  ARG27      -0.2718
      5  CB        34.9540   78.3910    5.1520 C.3    27  ARG27       0.0321
      6  CG        35.2860   79.3520    6.2880 C.3    27  ARG27       0.0489
      7  CD        34.0660   80.1650    6.7280 C.3    27  ARG27       0.2205
      8  NE        34.1590   80.6010    8.1240 N.pl3  27  ARG27      -0.0865
      9  CZ        33.9650   79.8070    9.1780 C.cat  27  ARG27       0.5346
     10  NH1       33.6620   78.5260    9.0080 N.pl3  27  ARG27       0.1354
     11  NH2       34.0730   80.2920   10.4090 N.pl3  27  ARG27       0.1354
     12  N         36.2350   76.0740    6.8230 N.am   28  ARG28      -0.1980
     13  CA        36.8680   75.6170    8.0570 C.3    28  ARG28       0.1597
     14  C         38.1200   74.8040    7.7570 C.2    28  ARG28       0.2287
     15  O         39.0790   74.8340    8.5330 O.2    28  ARG28      -0.2864
     16  CB        35.8870   74.8010    8.8990 C.3    28  ARG28       0.0334
     17  CG        34.7630   75.6330    9.5040 C.3    28  ARG28       0.0492
     18  CD        33.7800   74.7450   10.2540 C.3    28  ARG28       0.2205
     19  NE        32.5210   75.4260   10.5330 N.pl3  28  ARG28      -0.0865
     20  CZ        32.3790   76.3790   11.4440 C.cat  28  ARG28       0.5346
     21  NH1       33.4270   76.7580   12.1670 N.pl3  28  ARG28       0.1354
     22  NH2       31.1920   76.9520   11.6250 N.pl3  28  ARG28       0.1354
     23  N         40.7870   77.1840    6.9200 N.3    31  LYS31      -0.1245
     24  CA        41.2710   77.7660    8.1680 C.3    31  LYS31       0.1561
     25  C         42.2380   76.7730    8.8360 C.2    31  LYS31       0.2260
     26  O         43.3350   77.1440    9.2740 O.2    31  LYS31      -0.2867
     27  CB        40.1010   78.0830    9.1070 C.3    31  LYS31       0.0271
     28  CG        40.5320   78.6070   10.4760 C.3    31  LYS31       0.0035
     29  CD        39.3220   78.9020   11.3700 C.3    31  LYS31       0.0206
     30  CE        39.7480   79.1850   12.8080 C.3    31  LYS31       0.1093
     31  NZ        38.6090   79.0660   13.7780 N.3    31  LYS31      -0.1314
     32  N         46.3180   77.3040    9.3070 N.3    35  GLN35      -0.1245
     33  CA        46.9630   77.2410   10.6160 C.3    35  GLN35       0.1566
     34  C         48.0840   76.2250   10.5800 C.2    35  GLN35       0.2260
     35  O         48.6690   75.9170   11.6050 O.2    35  GLN35      -0.2867
     36  CB        45.9720   76.8440   11.7160 C.3    35  GLN35       0.0367
     37  CG        44.8140   77.8120   11.8810 C.3    35  GLN35       0.0905
     38  CD        43.8770   77.4390   13.0190 C.2    35  GLN35       0.2608
     39  OE1       43.6000   76.2620   13.2610 O.2    35  GLN35      -0.2717
     40  NE2       43.3620   78.4490   13.7080 N.am   35  GLN35      -0.0878
     41  N         38.5430   68.9340   14.1050 N.3    98  PHE98      -0.1241
     42  CA        38.3620   70.2680   14.6680 C.3    98  PHE98       0.1605
     43  C         37.4090   71.1410   13.8640 C.2    98  PHE98       0.2264
     44  O         36.8040   72.0690   14.4110 O.2    98  PHE98      -0.2867
     45  CB        39.7100   70.9800   14.7750 C.3    98  PHE98       0.0534
     46  CG        39.6530   72.2540   15.5510 C.ar   98  PHE98      -0.0203
     47  CD1       39.5700   72.2300   16.9400 C.ar   98  PHE98      -0.0042
     48  CD2       39.6510   73.4800   14.8980 C.ar   98  PHE98      -0.0042
     49  CE1       39.4830   73.4100   17.6720 C.ar   98  PHE98      -0.0003
     50  CE2       39.5630   74.6660   15.6160 C.ar   98  PHE98      -0.0003
     51  CZ        39.4780   74.6330   17.0080 C.ar   98  PHE98      -0.0000
     52  N         32.3320   71.4020   14.9680 N.3   101  MET101     -0.1230
     53  CA        32.0440   71.8260   16.3300 C.3   101  MET101      0.1702
     54  C         33.3090   71.8560   17.1700 C.2   101  MET101      0.2592
     55  O         33.3480   71.3440   18.3010 O.2   101  MET101     -0.2718
     56  CB        31.0060   70.9180   16.9870 C.3   101  MET101      0.0401
     57  CG        29.5770   71.2360   16.5790 C.3   101  MET101      0.0596
     58  SD        28.3550   70.4850   17.6880 S.3   101  MET101     -0.1393
     59  CE        28.3190   71.6590   19.0220 C.3   101  MET101      0.0692
     60  N         34.3400   72.4740   16.5990 N.am  102  GLY102     -0.1957
     61  CA        35.6170   72.6050   17.2710 C.3   102  GLY102      0.1869
     62  C         36.2170   71.2900   17.7200 C.2   102  GLY102      0.2309
     63  O         37.0810   71.2700   18.6040 O.2   102  GLY102     -0.2863
     64  N         34.8080   69.3320   19.4010 N.3   104  SER104     -0.1217
     65  CA        34.3030   69.1440   20.7610 C.3   104  SER104      0.1889
     66  C         33.9710   67.6760   21.0020 C.2   104  SER104      0.2288
     67  O         33.4950   66.9890   20.1040 O.2   104  SER104     -0.2866
     68  CB        33.0670   70.0250   21.0040 C.3   104  SER104      0.2089
     69  OG        32.0390   69.7650   20.0590 O.3   104  SER104     -0.2183
     70  N         38.4480   71.4310   20.8640 N.3   134  GLY134     -0.1210
     71  CA        38.3180   72.6160   21.6910 C.3   134  GLY134      0.1956
     72  C         37.7890   72.3000   23.0750 C.2   134  GLY134      0.2612
     73  O         37.5440   73.2070   23.8640 O.2   134  GLY134     -0.2717
     74  N         37.6000   71.0170   23.3710 N.am  135  GLY135     -0.1942
     75  CA        37.1190   70.6390   24.6860 C.3   135  GLY135      0.2014
     76  C         35.8400   69.8230   24.7030 C.2   135  GLY135      0.2638
     77  O         35.4710   69.1730   23.7230 O.2   135  GLY135     -0.2714
     78  N         35.1560   69.8620   25.8400 N.am  136  ALA136     -0.1977
     79  CA        33.9090   69.1270   26.0100 C.3   136  ALA136      0.1597
     80  C         32.8380   69.7480   25.1420 C.2   136  ALA136      0.2287
     81  O         32.9370   70.9110   24.7590 O.2   136  ALA136     -0.2864
     82  CB        33.4790   69.1730   27.4750 C.3   136  ALA136      0.0319
     83  N         29.9250   71.2140   25.5720 N.3   138  ILE138     -0.1231
     84  CA        29.1300   71.7770   26.6560 C.3   138  ILE138      0.1692
     85  C         27.6330   71.6610   26.4710 C.2   138  ILE138      0.2591
     86  O         26.9000   71.4850   27.4390 O.2   138  ILE138     -0.2718
     87  CB        29.4850   73.2570   26.8750 C.3   138  ILE138      0.0266
     88  CG1       30.9980   73.3980   27.0250 C.3   138  ILE138      0.0019
     89  CG2       28.7790   73.7880   28.1300 C.3   138  ILE138      0.0020
     90  CD1       31.5710   72.6160   28.1970 C.3   138  ILE138      0.0001
     91  N         27.1880   71.7780   25.2280 N.am  139  GLN139     -0.1979
     92  CA        25.7750   71.6780   24.9040 C.3   139  GLN139      0.1601
     93  C         25.1930   70.3060   25.2240 C.2   139  GLN139      0.2287
     94  O         23.9760   70.1590   25.2740 O.2   139  GLN139     -0.2864
     95  CB        25.5290   71.9540   23.4150 C.3   139  GLN139      0.0394
     96  CG        25.8070   73.3690   22.9480 C.3   139  GLN139      0.0908
     97  CD        27.2130   73.5470   22.4200 C.2   139  GLN139      0.2608
     98  OE1       27.4790   74.4690   21.6430 O.2   139  GLN139     -0.2717
     99  NE2       28.1270   72.6770   22.8430 N.am  139  GLN139     -0.0878
@<TRIPOS>BOND
     1     1     2    1
     2     2     5    1
     3     2     3    1
     4     5     6    1
     5     3     4    2
     6     3    12   am
     7     6     7    1
     8     7     8    1
     9    12    13    1
    10    23    24    1
    11    14    13    1
    12    14    15    2
    13    13    16    1
    14     8     9    2
    15    24    25    1
    16    24    27    1
    17    25    26    2
    18    16    17    1
    19    10     9    1
    20    27    28    1
    21     9    11    1
    22    32    33    1
    23    17    18    1
    24    18    19    1
    25    28    29    1
    26    19    20    2
    27    34    33    1
    28    34    35    2
    29    33    36    1
    30    29    30    1
    31    20    22    1
    32    20    21    1
    33    36    37    1
    34    37    38    1
    35    30    31    1
    36    38    39    2
    37    38    40   am
    38    43    44    2
    39    43    42    1
    40    41    42    1
    41    42    45    1
    42    45    46    1
    43    48    46   ar
    44    48    50   ar
    45    52    53    1
    46    46    47   ar
    47    50    51   ar
    48    53    56    1
    49    53    54    1
    50    57    56    1
    51    57    58    1
    52    60    54   am
    53    60    61    1
    54    47    49   ar
    55    51    49   ar
    56    54    55    2
    57    61    62    1
    58    58    59    1
    59    62    63    2
    60    64    65    1
    61    69    68    1
    62    67    66    2
    63    65    66    1
    64    65    68    1
    65    70    71    1
    66    98    97    2
    67    71    72    1
    68    97    99   am
    69    97    96    1
    70    96    95    1
    71    72    74   am
    72    72    73    2
    73    74    75    1
    74    95    92    1
    75    77    76    2
    76    75    76    1
    77    76    78   am
    78    81    80    2
    79    92    93    1
    80    92    91    1
    81    80    79    1
    82    93    94    2
    83    91    85   am
    84    83    84    1
    85    78    79    1
    86    79    82    1
    87    85    84    1
    88    85    86    2
    89    84    87    1
    90    87    88    1
    91    87    89    1
    92    88    90    1
