@<TRIPOS>MOLECULE
tmp/1ongA00.pdb
 73 70 0 0 0
SMALL
GASTEIGER

@<TRIPOS>ATOM
      1  N         38.1820   30.1740    9.9270 N.3     1  SER1       -0.1217
      2  CA        37.0400   30.7050   10.6710 C.3     1  SER1        0.1889
      3  C         37.2780   30.6530   12.1750 C.2     1  SER1        0.2288
      4  O         38.0160   29.8490   12.7470 O.2     1  SER1       -0.2866
      5  CB        35.7490   29.9760   10.2870 C.3     1  SER1        0.2089
      6  OG        35.3620   30.2970    8.9460 O.3     1  SER1       -0.2183
      7  N         27.1250   26.6720   -1.9790 N.3   199  VAL199     -0.1231
      8  CA        28.2850   27.0670   -1.1700 C.3   199  VAL199      0.1692
      9  C         28.7000   26.0310   -0.1710 C.2   199  VAL199      0.2592
     10  O         29.6690   26.2380    0.5630 O.2   199  VAL199     -0.2718
     11  CB        27.9940   28.4460   -0.5240 C.3   199  VAL199      0.0266
     12  CG1       27.9750   29.5360   -1.5890 C.3   199  VAL199      0.0020
     13  CG2       26.7380   28.4120    0.3380 C.3   199  VAL199      0.0020
     14  N         28.0200   24.8850   -0.0800 N.am  200  LEU200     -0.1966
     15  CA        28.4660   23.8440    0.8300 C.3   200  LEU200      0.1713
     16  C         29.5280   23.0010    0.1710 C.2   200  LEU200      0.2458
     17  O         29.4030   22.6650   -1.0230 O.2   200  LEU200     -0.2730
     18  CB        27.3020   22.9240    1.1980 C.3   200  LEU200      0.0310
     19  CG        26.3650   23.3900    2.2780 C.3   200  LEU200      0.0022
     20  CD1       25.2290   22.3350    2.4000 C.3   200  LEU200      0.0001
     21  CD2       27.0850   23.5770    3.5780 C.3   200  LEU200      0.0001
     22  N         30.5160   22.5380    0.9520 N.am  201  PRO201     -0.2727
     23  CA        31.4710   21.5850    0.3940 C.3   201  PRO201      0.1402
     24  C         30.7540   20.3510   -0.0960 C.2   201  PRO201      0.2269
     25  O         29.6760   19.9380    0.4370 O.2   201  PRO201     -0.2865
     26  CB        32.4190   21.2300    1.5630 C.3   201  PRO201      0.0296
     27  CG        32.2210   22.3670    2.5110 C.3   201  PRO201      0.0237
     28  CD        30.7820   22.8110    2.3690 C.3   201  PRO201      0.0939
     29  N         28.2170   17.4280    2.0750 N.3   204  TRP204     -0.1241
     30  CA        27.3630   17.9380    3.1560 C.3   204  TRP204      0.1605
     31  C         25.9020   17.9060    2.7360 C.2   204  TRP204      0.2264
     32  O         25.4880   18.4200    1.7070 O.2   204  TRP204     -0.2867
     33  CB        27.8280   19.3510    3.5450 C.3   204  TRP204      0.0550
     34  CG        29.1350   19.2940    4.2650 C.ar  204  TRP204      0.0003
     35  CD1       30.3990   19.1340    3.7260 C.ar  204  TRP204      0.0946
     36  CD2       29.3730   19.3890    5.6720 C.ar  204  TRP204      0.0152
     37  NE1       31.3410   19.1180    4.7030 N.ar  204  TRP204     -0.2442
     38  CE2       30.7260   19.2710    5.8960 C.ar  204  TRP204      0.0810
     39  CE3       28.5080   19.5500    6.7930 C.ar  204  TRP204      0.0012
     40  CZ2       31.3260   19.3180    7.1700 C.ar  204  TRP204      0.0191
     41  CZ3       29.0690   19.5920    8.0380 C.ar  204  TRP204      0.0001
     42  CH2       30.4520   19.4650    8.2020 C.ar  204  TRP204      0.0015
     43  N         25.6900   32.5260    6.8870 N.3   253  ALA253     -0.1245
     44  CA        26.6440   31.6510    6.1490 C.3   253  ALA253      0.1562
     45  C         27.9550   31.5600    6.8920 C.2   253  ALA253      0.2260
     46  O         28.5580   30.5100    6.9480 O.2   253  ALA253     -0.2867
     47  CB        26.8030   32.2000    4.7690 C.3   253  ALA253      0.0290
     48  N         27.6750   29.1480    9.5550 N.3   256  GLY256     -0.1210
     49  CA        27.7280   27.8690    8.9210 C.3   256  GLY256      0.1956
     50  C         29.1750   27.4210    8.6440 C.2   256  GLY256      0.2611
     51  O         29.5380   26.2480    8.8690 O.2   256  GLY256     -0.2717
     52  N         29.9820   28.3260    8.1330 N.am  257  ALA257     -0.1979
     53  CA        31.3870   28.0230    7.8160 C.3   257  ALA257      0.1597
     54  C         32.1390   27.6300    9.0560 C.2   257  ALA257      0.2287
     55  O         32.9340   26.7050    9.0590 O.2   257  ALA257     -0.2864
     56  CB        32.0290   29.2300    7.1480 C.3   257  ALA257      0.0319
     57  N         31.2140   24.0420   10.0710 N.3   260  ILE260     -0.1231
     58  CA        31.8570   23.0970    9.1530 C.3   260  ILE260      0.1692
     59  C         33.3300   22.9340    9.4850 C.2   260  ILE260      0.2591
     60  O         33.8170   21.8240    9.5470 O.2   260  ILE260     -0.2718
     61  CB        31.6400   23.5400    7.6940 C.3   260  ILE260      0.0266
     62  CG1       30.1710   23.3800    7.3000 C.3   260  ILE260      0.0019
     63  CG2       32.5220   22.7790    6.7220 C.3   260  ILE260      0.0020
     64  CD1       29.7560   24.1610    6.0850 C.3   260  ILE260      0.0001
     65  N         33.9960   24.0690    9.6820 N.am  261  GLU261     -0.1979
     66  CA        35.4550   24.0080    9.9460 C.3   261  GLU261      0.1602
     67  C         35.7970   23.3900   11.2960 C.2   261  GLU261      0.2287
     68  O         36.8660   22.8290   11.5080 O.2   261  GLU261     -0.2864
     69  CB        36.0650   25.3960    9.8750 C.3   261  GLU261      0.0415
     70  CG        36.4330   25.9010    8.4680 C.3   261  GLU261      0.1163
     71  CD        37.4580   27.0410    8.6640 C.2   261  GLU261      0.3649
     72  OE1       38.0300   27.6230    7.7810 O.co2 261  GLU261     -0.2457
     73  OE2       37.6810   27.3670    9.8640 O.co2 261  GLU261     -0.2457
@<TRIPOS>BOND
     1     7     8    1
     2    12    11    1
     3     8    11    1
     4     8     9    1
     5    17    16    2
     6    11    13    1
     7     9    14   am
     8     9    10    2
     9    24    23    1
    10    24    25    2
    11    14    15    1
    12    16    15    1
    13    16    22   am
    14    23    22    1
    15    23    26    1
    16    15    18    1
    17    22    28    1
    18    18    19    1
    19    26    27    1
    20    32    31    2
    21    29    30    1
    22    19    20    1
    23    19    21    1
    24    28    27    1
    25    31    30    1
    26    30    33    1
    27    33    34    1
    28    35    34   ar
    29    35    37   ar
    30    34    36   ar
    31    37    38   ar
    32    47    44    1
    33    36    38   ar
    34    36    39   ar
    35    38    40   ar
    36    64    62    1
    37    44    43    1
    38    44    45    1
    39    63    61    1
    40    39    41   ar
    41    45    46    2
    42    56    53    1
    43    40    42   ar
    44    62    61    1
    45    61    58    1
    46    72    71   ar
    47    53    52    1
    48    53    54    1
    49    41    42   ar
    50    52    50   am
    51    70    71    1
    52    70    69    1
    53    50    51    2
    54    50    49    1
    55    71    73   ar
    56    49    48    1
    57     6     5    1
    58    54    55    2
    59    58    59    1
    60    58    57    1
    61    59    60    2
    62    59    65   am
    63    65    66    1
    64    69    66    1
    65     1     2    1
    66    66    67    1
    67     5     2    1
    68     2     3    1
    69    67    68    2
    70     3     4    2
