@<TRIPOS>MOLECULE
tmp/1onqA00.pdb
 79 75 0 0 0
SMALL
GASTEIGER

@<TRIPOS>ATOM
      1  N         35.0990    4.6300   76.8260 N.3    51  ASN51      -0.1225
      2  CA        36.5240    4.9040   76.6790 C.3    51  ASN51       0.1785
      3  C         37.1080    4.2040   75.4350 C.2    51  ASN51       0.2597
      4  O         38.3070    3.9390   75.3840 O.2    51  ASN51      -0.2718
      5  CB        37.3510    4.4860   77.9360 C.3    51  ASN51       0.1169
      6  CG        37.3970    2.9660   78.1740 C.2    51  ASN51       0.2627
      7  OD1       36.6490    2.1840   77.5490 O.2    51  ASN51      -0.2716
      8  ND2       38.2760    2.5490   79.0920 N.am   51  ASN51      -0.0877
      9  N         36.2570    3.9010   74.4500 N.am   52  PHE52      -0.1962
     10  CA        36.7110    3.2780   73.1900 C.3    52  PHE52       0.1771
     11  C         37.1380    4.3350   72.1690 C.2    52  PHE52       0.2620
     12  O         36.4050    5.3220   71.9390 O.2    52  PHE52      -0.2715
     13  CB        35.5860    2.4140   72.5580 C.3    52  PHE52       0.0574
     14  CG        35.4240    1.0440   73.1830 C.ar   52  PHE52      -0.0200
     15  CD1       34.6440    0.0830   72.5540 C.ar   52  PHE52      -0.0042
     16  CD2       36.0350    0.7090   74.3900 C.ar   52  PHE52      -0.0042
     17  CE1       34.4800   -1.1830   73.1110 C.ar   52  PHE52      -0.0003
     18  CE2       35.8670   -0.5600   74.9470 C.ar   52  PHE52      -0.0003
     19  CZ        35.0960   -1.5010   74.3070 C.ar   52  PHE52      -0.0000
     20  N         38.3110    4.1190   71.5640 N.am   53  SER53      -0.1950
     21  CA        38.8020    4.9490   70.4580 C.3    53  SER53       0.1924
     22  C         37.8910    4.9850   69.2150 C.2    53  SER53       0.2314
     23  O         36.9680    4.1790   69.0650 O.2    53  SER53      -0.2863
     24  CB        40.1850    4.4610   70.0110 C.3    53  SER53       0.2116
     25  OG        40.1130    3.1600   69.4230 O.3    53  SER53      -0.2180
     26  N         38.4210    1.6800   67.3530 N.3    56  GLU56      -0.1245
     27  CA        37.7050    0.5070   67.8510 C.3    56  GLU56       0.1567
     28  C         36.2310    0.6000   67.4660 C.2    56  GLU56       0.2260
     29  O         35.5970   -0.4000   67.2410 O.2    56  GLU56      -0.2867
     30  CB        37.8370    0.3700   69.3630 C.3    56  GLU56       0.0388
     31  CG        37.0030   -0.7560   69.9680 C.3    56  GLU56       0.1160
     32  CD        37.7000   -1.4430   71.1420 C.2    56  GLU56       0.3649
     33  OE1       37.4990   -2.6640   71.3200 O.co2  56  GLU56      -0.2457
     34  OE2       38.4460   -0.7530   71.8740 O.co2  56  GLU56      -0.2457
     35  N         32.2460   -7.1900   86.8730 N.3   103  VAL103     -0.1245
     36  CA        31.4840   -7.8960   85.8380 C.3   103  VAL103      0.1561
     37  C         31.2260   -9.3420   86.2870 C.2   103  VAL103      0.2260
     38  O         32.1590  -10.1080   86.4810 O.2   103  VAL103     -0.2867
     39  CB        32.1900   -7.8690   84.4770 C.3   103  VAL103      0.0252
     40  CG1       31.5080   -8.8290   83.4860 C.3   103  VAL103      0.0019
     41  CG2       32.1890   -6.4520   83.9230 C.3   103  VAL103      0.0019
     42  N         35.3020  -10.2660   76.4690 N.3   158  ASP158     -0.1239
     43  CA        36.4000   -9.2730   76.4920 C.3   158  ASP158      0.1674
     44  C         35.9480   -7.8690   76.1210 C.2   158  ASP158      0.2266
     45  O         36.2920   -6.9220   76.8090 O.2   158  ASP158     -0.2867
     46  CB        37.5900   -9.6400   75.6080 C.3   158  ASP158      0.1410
     47  CG        38.6710   -8.5290   75.6050 C.2   158  ASP158      0.3668
     48  OD1       39.4810   -8.4680   76.5570 O.co2 158  ASP158     -0.2456
     49  OD2       38.7820   -7.6640   74.7000 O.co2 158  ASP158     -0.2456
     50  N         32.7120   -6.5330   78.8480 N.3   161  PRO161     -0.2102
     51  CA        33.2130   -6.1240   80.1610 C.3   161  PRO161      0.1504
     52  C         33.9370   -4.7870   80.1270 C.2   161  PRO161      0.2575
     53  O         33.6690   -3.9310   80.9850 O.2   161  PRO161     -0.2718
     54  CB        34.1810   -7.2670   80.5470 C.3   161  PRO161      0.0282
     55  CG        33.5470   -8.4730   79.8840 C.3   161  PRO161      0.0208
     56  CD        33.0860   -7.9200   78.5460 C.3   161  PRO161      0.0893
     57  N         34.8200   -4.6150   79.1460 N.am  162  ARG162     -0.1980
     58  CA        35.6260   -3.3990   79.0320 C.3   162  ARG162      0.1597
     59  C         34.7540   -2.2110   78.7460 C.2   162  ARG162      0.2287
     60  O         34.9840   -1.1130   79.2390 O.2   162  ARG162     -0.2864
     61  CB        36.6480   -3.5340   77.8950 C.3   162  ARG162      0.0334
     62  CG        37.9280   -4.1800   78.2910 C.3   162  ARG162      0.0492
     63  CD        39.0540   -4.0760   77.2310 C.3   162  ARG162      0.2205
     64  NE        38.6370   -4.7140   75.9770 N.pl3 162  ARG162     -0.0865
     65  CZ        38.2530   -4.0820   74.8450 C.cat 162  ARG162      0.5346
     66  NH1       38.2270   -2.7560   74.7480 N.pl3 162  ARG162      0.1354
     67  NH2       37.8990   -4.8030   73.7810 N.pl3 162  ARG162      0.1354
     68  N         32.2490   -0.9040   81.8240 N.3   165  LEU165     -0.1231
     69  CA        33.0000   -0.1470   82.8320 C.3   165  LEU165      0.1693
     70  C         33.3330    1.2390   82.2860 C.2   165  LEU165      0.2592
     71  O         33.1600    2.2270   82.9800 O.2   165  LEU165     -0.2718
     72  CB        34.2460   -0.9030   83.2930 C.3   165  LEU165      0.0284
     73  CG        33.9300   -2.0700   84.2410 C.3   165  LEU165      0.0019
     74  CD1       35.1430   -2.9450   84.4600 C.3   165  LEU165      0.0001
     75  CD2       33.3920   -1.5760   85.6040 C.3   165  LEU165      0.0001
     76  N         33.7870    1.3170   81.0350 N.am  166  GLY166     -0.1957
     77  CA        34.0620    2.5980   80.4170 C.3   166  GLY166      0.1869
     78  C         32.8270    3.4690   80.2210 C.2   166  GLY166      0.2309
     79  O         32.9300    4.6950   80.3370 O.2   166  GLY166     -0.2863
@<TRIPOS>BOND
     1    29    28    2
     2    26    27    1
     3    28    27    1
     4    27    30    1
     5    23    22    2
     6    22    21    1
     7    30    31    1
     8    25    24    1
     9    31    32    1
    10    24    21    1
    11    21    20    1
    12    32    33   ar
    13    32    34   ar
    14    20    11   am
    15    12    11    2
    16    11    10    1
    17    15    17   ar
    18    15    14   ar
    19    13    14    1
    20    13    10    1
    21    17    19   ar
    22    14    16   ar
    23    10     9    1
    24    67    65    1
    25    19    18   ar
    26    16    18   ar
    27     9     3   am
    28    49    47   ar
    29    66    65    1
    30    65    64    2
    31     4     3    2
    32     3     2    1
    33    47    46    1
    34    47    48   ar
    35    46    43    1
    36    64    63    1
    37    44    43    1
    38    44    45    2
    39    42    43    1
    40     2     1    1
    41     2     5    1
    42    63    62    1
    43     7     6    2
    44    61    62    1
    45    61    58    1
    46     5     6    1
    47     6     8   am
    48    56    50    1
    49    56    55    1
    50    59    58    1
    51    59    60    2
    52    50    51    1
    53    58    57    1
    54    57    52   am
    55    55    54    1
    56    52    51    1
    57    52    53    2
    58    51    54    1
    59    78    79    2
    60    78    77    1
    61    77    76    1
    62    76    70   am
    63    68    69    1
    64    70    69    1
    65    70    71    2
    66    69    72    1
    67    72    73    1
    68    40    39    1
    69    41    39    1
    70    73    74    1
    71    73    75    1
    72    39    36    1
    73    36    37    1
    74    36    35    1
    75    37    38    2
