@<TRIPOS>MOLECULE
tmp/1onxA00.pdb
 124 118 0 0 0
SMALL
GASTEIGER

@<TRIPOS>ATOM
      1  N         40.7260   25.6100   22.4220 N.3    68  HIS68      -0.1241
      2  CA        42.1580   25.5750   22.2920 C.3    68  HIS68       0.1621
      3  C         42.8240   26.6280   23.1360 C.2    68  HIS68       0.2264
      4  O         43.3290   27.6230   22.6560 O.2    68  HIS68      -0.2867
      5  CB        42.5590   25.7410   20.8050 C.3    68  HIS68       0.0745
      6  CG        43.9980   25.4250   20.5590 C.ar   68  HIS68       0.0817
      7  ND1       44.3610   24.3950   19.7160 N.ar   68  HIS68      -0.2268
      8  CD2       45.1350   25.9710   21.0830 C.ar   68  HIS68       0.1154
      9  CE1       45.6980   24.3420   19.7300 C.ar   68  HIS68       0.1986
     10  NE2       46.1850   25.2800   20.5390 N.ar   68  HIS68      -0.2212
     11  N         45.4560   27.5050   26.4690 N.3    70  HIS70      -0.1241
     12  CA        46.4980   27.0930   27.3970 C.3    70  HIS70       0.1621
     13  C         46.1490   27.5810   28.7780 C.2    70  HIS70       0.2264
     14  O         46.7340   28.5510   29.2880 O.2    70  HIS70      -0.2867
     15  CB        47.8540   27.6270   26.9770 C.3    70  HIS70       0.0745
     16  CG        48.1910   27.0570   25.6630 C.ar   70  HIS70       0.0817
     17  ND1       48.9390   25.9150   25.5780 N.ar   70  HIS70      -0.2268
     18  CD2       47.8330   27.4710   24.4360 C.ar   70  HIS70       0.1154
     19  CE1       49.0370   25.6540   24.3080 C.ar   70  HIS70       0.1986
     20  NE2       48.4060   26.5750   23.6020 N.ar   70  HIS70      -0.2212
     21  N         51.5590   28.5880   28.9760 N.3    74  GLY74      -0.1210
     22  CA        52.2860   27.8730   27.9830 C.3    74  GLY74       0.1956
     23  C         53.5920   28.5840   27.7770 C.2    74  GLY74       0.2612
     24  O         54.2240   29.0600   28.7430 O.2    74  GLY74      -0.2717
     25  N         53.9790   28.6550   26.5100 N.am   75  GLY75      -0.1956
     26  CA        55.2210   29.3000   26.1890 C.3    75  GLY75       0.1869
     27  C         56.4300   28.4800   26.6440 C.2    75  GLY75       0.2309
     28  O         56.3300   27.2700   26.7790 O.2    75  GLY75      -0.2863
     29  N         59.3310   28.5740   24.8760 N.3    77  GLU77      -0.1245
     30  CA        60.1480   28.3770   23.6860 C.3    77  GLU77       0.1567
     31  C         61.4280   29.1750   23.6630 C.2    77  GLU77       0.2260
     32  O         62.3480   28.8940   22.9470 O.2    77  GLU77      -0.2867
     33  CB        59.3610   28.5970   22.3860 C.3    77  GLU77       0.0388
     34  CG        58.3090   27.5010   22.0980 C.3    77  GLU77       0.1160
     35  CD        56.9210   27.9080   22.4930 C.2    77  GLU77       0.3649
     36  OE1       56.6890   28.7670   23.3400 O.co2  77  GLU77      -0.2457
     37  OE2       56.0210   27.2690   21.7940 O.co2  77  GLU77      -0.2457
     38  N         51.1970   22.4490   25.3310 N.3   105  GLY105     -0.1210
     39  CA        51.7960   22.5890   24.0490 C.3   105  GLY105      0.1956
     40  C         53.1650   22.0840   23.9560 C.2   105  GLY105      0.2613
     41  O         53.4350   20.9090   24.1850 O.2   105  GLY105     -0.2717
     42  N         54.0560   23.0030   23.6020 N.am  106  THR106     -0.1938
     43  CA        55.4290   22.6270   23.4510 C.3   106  THR106      0.2028
     44  C         56.0340   22.0190   24.7140 C.2   106  THR106      0.2642
     45  O         56.6300   20.9490   24.7050 O.2   106  THR106     -0.2714
     46  CB        56.2770   23.8370   23.0610 C.3   106  THR106      0.1808
     47  OG1       55.6150   24.4790   22.0220 O.3   106  THR106     -0.2208
     48  CG2       57.6600   23.3880   22.6100 C.3   106  THR106      0.0379
     49  N         55.8980   22.7400   25.7970 N.am  107  ASP107     -0.1971
     50  CA        56.5030   22.3340   27.0440 C.3   107  ASP107      0.1709
     51  C         55.6490   21.4500   27.8870 C.2   107  ASP107      0.2293
     52  O         54.6380   21.8550   28.4460 O.2   107  ASP107     -0.2864
     53  CB        56.8380   23.5850   27.8810 C.3   107  ASP107      0.1436
     54  CG        57.3960   23.2990   29.2570 C.2   107  ASP107      0.3671
     55  OD1       57.6790   22.2030   29.6910 O.co2 107  ASP107     -0.2456
     56  OD2       57.5660   24.3910   29.9290 O.co2 107  ASP107     -0.2456
     57  N         52.7250   18.3680   22.8200 N.3   137  TYR137     -0.1241
     58  CA        53.4070   18.1460   21.5610 C.3   137  TYR137      0.1605
     59  C         54.0380   16.7880   21.5380 C.2   137  TYR137      0.2264
     60  O         53.9960   16.0960   20.5240 O.2   137  TYR137     -0.2867
     61  CB        54.5610   19.1170   21.2940 C.3   137  TYR137      0.0534
     62  CG        54.1680   20.4720   20.7530 C.ar  137  TYR137     -0.0201
     63  CD1       52.8960   21.0170   20.9430 C.ar  137  TYR137     -0.0009
     64  CD2       55.1130   21.1910   20.0150 C.ar  137  TYR137     -0.0009
     65  CE1       52.5660   22.2660   20.4090 C.ar  137  TYR137      0.0417
     66  CE2       54.8120   22.4460   19.4880 C.ar  137  TYR137      0.0417
     67  CZ        53.5420   22.9830   19.7100 C.ar  137  TYR137      0.1957
     68  OH        53.3000   24.2330   19.2000 O.3   137  TYR137     -0.2866
     69  N         59.3570   21.5960   16.3230 N.3   168  ARG168     -0.1245
     70  CA        59.1950   21.4360   17.7570 C.3   168  ARG168      0.1563
     71  C         58.5870   20.0870   18.0950 C.2   168  ARG168      0.2260
     72  O         58.3110   19.8100   19.2610 O.2   168  ARG168     -0.2867
     73  CB        58.3450   22.5440   18.3480 C.3   168  ARG168      0.0307
     74  CG        59.0920   23.8680   18.5140 C.3   168  ARG168      0.0489
     75  CD        58.1270   25.0590   18.6350 C.3   168  ARG168      0.2205
     76  NE        57.1070   25.1120   17.5790 N.pl3 168  ARG168     -0.0865
     77  CZ        55.9710   25.8080   17.6700 C.cat 168  ARG168      0.5346
     78  NH1       55.6530   26.5220   18.7550 N.pl3 168  ARG168      0.1354
     79  NH2       55.1200   25.7890   16.6540 N.pl3 168  ARG168      0.1354
     80  N         48.5640   19.4920   16.2110 N.3   200  HIS200     -0.1241
     81  CA        49.0660   20.8510   16.0940 C.3   200  HIS200      0.1621
     82  C         49.8600   20.8410   14.8070 C.2   200  HIS200      0.2264
     83  O         50.7360   20.0070   14.6770 O.2   200  HIS200     -0.2867
     84  CB        50.0140   21.2750   17.2320 C.3   200  HIS200      0.0745
     85  CG        51.0510   22.2350   16.7570 C.ar  200  HIS200      0.0817
     86  ND1       50.9090   23.5960   16.9580 N.ar  200  HIS200     -0.2268
     87  CD2       52.2580   22.0600   16.1040 C.ar  200  HIS200      0.1154
     88  CE1       51.9900   24.2220   16.4430 C.ar  200  HIS200      0.1986
     89  NE2       52.8260   23.3270   15.9300 N.ar  200  HIS200     -0.2212
     90  N         45.5220   25.1920   13.6070 N.3   229  HIS229     -0.1241
     91  CA        46.4240   26.2260   13.0360 C.3   229  HIS229      0.1621
     92  C         46.4900   26.0850   11.5080 C.2   229  HIS229      0.2264
     93  O         47.5500   26.3190   10.9710 O.2   229  HIS229     -0.2867
     94  CB        47.8820   26.1360   13.5580 C.3   229  HIS229      0.0745
     95  CG        47.9510   25.9250   15.0320 C.ar  229  HIS229      0.0817
     96  ND1       47.7180   26.9640   15.9260 N.ar  229  HIS229     -0.2268
     97  CD2       48.1880   24.7960   15.7400 C.ar  229  HIS229      0.1154
     98  CE1       47.8210   26.4700   17.1480 C.ar  229  HIS229      0.1986
     99  NE2       48.1080   25.1760   17.0630 N.ar  229  HIS229     -0.2212
    100  N         43.6770   29.7050   20.9030 N.3   284  ASP284     -0.1239
    101  CA        45.0260   29.3580   21.2440 C.3   284  ASP284      0.1674
    102  C         45.4640   30.3990   22.3140 C.2   284  ASP284      0.2266
    103  O         46.6470   30.7280   22.5180 O.2   284  ASP284     -0.2867
    104  CB        45.9560   29.3020   20.0220 C.3   284  ASP284      0.1410
    105  CG        47.2480   28.6310   20.3780 C.2   284  ASP284      0.3668
    106  OD1       47.3610   27.9430   21.3770 O.co2 284  ASP284     -0.2456
    107  OD2       48.2140   28.8420   19.5170 O.co2 284  ASP284     -0.2456
    108  N         48.7470   31.0320   24.7380 N.3   287  GLY287     -0.1210
    109  CA        49.8920   30.3520   24.1660 C.3   287  GLY287      0.1956
    110  C         50.8890   31.4230   23.7320 C.2   287  GLY287      0.2612
    111  O         50.6100   32.6210   23.7470 O.2   287  GLY287     -0.2717
    112  N         52.0690   31.0230   23.3330 N.am  288  SER288     -0.1952
    113  CA        52.9630   32.0600   22.8790 C.3   288  SER288      0.1924
    114  C         52.8740   32.1360   21.3470 C.2   288  SER288      0.2314
    115  O         52.3900   31.2180   20.6560 O.2   288  SER288     -0.2863
    116  CB        54.3890   31.8490   23.3680 C.3   288  SER288      0.2116
    117  OG        54.7780   30.5200   23.1060 O.3   288  SER288     -0.2180
    118  N         55.4960   32.4640   18.9850 N.3   290  PRO290     -0.2116
    119  CA        56.9070   32.2610   18.7070 C.3   290  PRO290      0.1372
    120  C         57.1820   32.3310   17.2050 C.2   290  PRO290      0.2244
    121  O         56.5920   31.6600   16.3510 O.2   290  PRO290     -0.2868
    122  CB        57.2610   30.8890   19.3080 C.3   290  PRO290      0.0268
    123  CG        55.9490   30.2320   19.7370 C.3   290  PRO290      0.0207
    124  CD        54.8300   31.1660   19.3020 C.3   290  PRO290      0.0892
@<TRIPOS>BOND
     1    93    92    2
     2    92    91    1
     3    91    94    1
     4    91    90    1
     5    94    95    1
     6    83    82    2
     7    82    81    1
     8    95    97   ar
     9    95    96   ar
    10    97    99   ar
    11    96    98   ar
    12    89    87   ar
    13    89    88   ar
    14    81    80    1
    15    81    84    1
    16    87    85   ar
    17    69    70    1
    18   121   120    2
    19    88    86   ar
    20    79    77    1
    21    85    86   ar
    22    85    84    1
    23    99    98   ar
    24   120   119    1
    25    76    77    2
    26    76    75    1
    27    77    78    1
    28    70    71    1
    29    70    73    1
    30    71    72    2
    31    73    74    1
    32    74    75    1
    33   119   118    1
    34   119   122    1
    35   118   124    1
    36    68    67    1
    37   124   123    1
    38   122   123    1
    39    66    67   ar
    40    66    64   ar
    41   107   105   ar
    42    67    65   ar
    43     7     9   ar
    44     7     6   ar
    45     9    10   ar
    46    64    62   ar
    47   104   105    1
    48   104   101    1
    49   105   106   ar
    50    65    63   ar
    51    60    59    2
    52    10     8   ar
    53     6     5    1
    54     6     8   ar
    55   115   114    2
    56    62    63   ar
    57    62    61    1
    58     5     2    1
    59   100   101    1
    60   101   102    1
    61    61    58    1
    62   114   113    1
    63    59    58    1
    64    58    57    1
    65    37    35   ar
    66    47    46    1
    67    34    33    1
    68    34    35    1
    69     2     1    1
    70     2     3    1
    71   102   103    2
    72    33    30    1
    73    35    36   ar
    74    48    46    1
    75     4     3    2
    76   113   112    1
    77   113   116    1
    78    32    31    2
    79    46    43    1
    80   117   116    1
    81   112   110   am
    82    43    42    1
    83    43    44    1
    84    20    19   ar
    85    20    18   ar
    86    42    40   am
    87    31    30    1
    88    30    29    1
    89   110   111    2
    90   110   109    1
    91    40    39    1
    92    40    41    2
    93    39    38    1
    94   109   108    1
    95    19    17   ar
    96    18    16   ar
    97    45    44    2
    98    44    49   am
    99    17    16   ar
   100    16    15    1
   101    49    50    1
   102    26    25    1
   103    26    27    1
   104    11    12    1
   105    25    23   am
   106    27    28    2
   107    15    12    1
   108    50    53    1
   109    50    51    1
   110    12    13    1
   111    23    22    1
   112    23    24    2
   113    53    54    1
   114    51    52    2
   115    22    21    1
   116    13    14    2
   117    54    55   ar
   118    54    56   ar
