@<TRIPOS>MOLECULE
tmp/1onyA00.pdb
 183 178 0 0 0
SMALL
GASTEIGER

@<TRIPOS>ATOM
      1  N         32.6760   38.2310   19.5750 N.3    45  TYR45      -0.1227
      2  CA        31.6790   37.5260   18.7780 C.3    45  TYR45       0.1736
      3  C         30.3240   38.2160   18.8720 C.2    45  TYR45       0.2595
      4  O         29.8950   38.6250   19.9510 O.2    45  TYR45      -0.2718
      5  CB        31.5590   36.0780   19.2550 C.3    45  TYR45       0.0548
      6  CG        32.8250   35.2790   19.0950 C.ar   45  TYR45      -0.0200
      7  CD1       33.3110   34.9510   17.8270 C.ar   45  TYR45      -0.0009
      8  CD2       33.5310   34.8260   20.2140 C.ar   45  TYR45      -0.0009
      9  CE1       34.4700   34.1840   17.6770 C.ar   45  TYR45       0.0417
     10  CE2       34.6900   34.0620   20.0760 C.ar   45  TYR45       0.0417
     11  CZ        35.1530   33.7440   18.8070 C.ar   45  TYR45       0.1957
     12  OH        36.2940   32.9810   18.6710 O.3    45  TYR45      -0.2866
     13  N         29.6550   38.3340   17.7290 N.am   46  ARG46      -0.1966
     14  CA        28.3460   38.9740   17.6560 C.3    46  ARG46       0.1729
     15  C         27.2770   38.1730   18.3940 C.2    46  ARG46       0.2616
     16  O         26.3200   38.7430   18.9100 O.2    46  ARG46      -0.2715
     17  CB        27.9330   39.1380   16.1920 C.3    46  ARG46       0.0348
     18  CG        26.5990   39.8440   15.9810 C.3    46  ARG46       0.0492
     19  CD        26.1980   39.8390   14.5090 C.3    46  ARG46       0.2205
     20  NE        25.9950   38.4820   14.0050 N.pl3  46  ARG46      -0.0865
     21  CZ        25.6240   38.1920   12.7610 C.cat  46  ARG46       0.5346
     22  NH1       25.4150   39.1650   11.8820 N.pl3  46  ARG46       0.1354
     23  NH2       25.4550   36.9260   12.3960 N.pl3  46  ARG46       0.1354
     24  N         27.4440   36.8520   18.4430 N.am   47  ASP47      -0.1957
     25  CA        26.4720   35.9840   19.1040 C.3    47  ASP47       0.1840
     26  C         26.8370   35.5460   20.5230 C.2    47  ASP47       0.2621
     27  O         26.2280   34.6200   21.0540 O.2    47  ASP47      -0.2715
     28  CB        26.1990   34.7370   18.2460 C.3    47  ASP47       0.1450
     29  CG        27.4710   34.0070   17.8610 C.2    47  ASP47       0.3671
     30  OD1       28.5430   34.3710   18.3860 O.co2  47  ASP47      -0.2456
     31  OD2       27.4000   33.0690   17.0330 O.co2  47  ASP47      -0.2456
     32  N         27.8260   36.1950   21.1340 N.am   48  VAL48      -0.1977
     33  CA        28.2180   35.8600   22.5050 C.3    48  VAL48       0.1596
     34  C         28.2530   37.1260   23.3560 C.2    48  VAL48       0.2287
     35  O         29.1870   37.9280   23.2630 O.2    48  VAL48      -0.2864
     36  CB        29.5990   35.1880   22.5580 C.3    48  VAL48       0.0276
     37  CG1       29.9520   34.8630   24.0060 C.3    48  VAL48       0.0022
     38  CG2       29.5900   33.9170   21.7270 C.3    48  VAL48       0.0022
     39  N         45.4680   29.6070   17.4950 N.3   114  GLU114     -0.1231
     40  CA        45.0310   28.2190   17.3440 C.3   114  GLU114      0.1699
     41  C         44.4600   28.1260   15.9450 C.2   114  GLU114      0.2592
     42  O         43.8130   29.0590   15.4740 O.2   114  GLU114     -0.2718
     43  CB        43.9370   27.8620   18.3580 C.3   114  GLU114      0.0402
     44  CG        44.2980   28.0790   19.8190 C.3   114  GLU114      0.1161
     45  CD        43.2300   27.5560   20.7740 C.2   114  GLU114      0.3649
     46  OE1       42.0670   27.3830   20.3420 O.co2 114  GLU114     -0.2457
     47  OE2       43.5500   27.3290   21.9590 O.co2 114  GLU114     -0.2457
     48  N         44.6950   27.0080   15.2770 N.am  115  LYS115     -0.1980
     49  CA        44.1850   26.8440   13.9210 C.3   115  LYS115      0.1596
     50  C         44.7100   27.9520   13.0060 C.2   115  LYS115      0.2287
     51  O         44.0480   28.3150   12.0310 O.2   115  LYS115     -0.2864
     52  CB        42.6550   26.8910   13.9080 C.3   115  LYS115      0.0298
     53  CG        41.9390   25.7960   14.6910 C.3   115  LYS115      0.0038
     54  CD        40.4300   26.0510   14.6300 C.3   115  LYS115      0.0206
     55  CE        39.6160   25.0890   15.4840 C.3   115  LYS115      0.1093
     56  NZ        38.1720   25.4880   15.4640 N.3   115  LYS115     -0.1314
     57  N         43.1080   33.9680   18.5930 N.3   119  LYS119     -0.1245
     58  CA        41.9240   33.6550   19.3830 C.3   119  LYS119      0.1561
     59  C         41.9060   34.4880   20.6600 C.2   119  LYS119      0.2260
     60  O         40.9400   34.4470   21.4360 O.2   119  LYS119     -0.2867
     61  CB        41.9070   32.1630   19.7470 C.3   119  LYS119      0.0271
     62  CG        41.7470   31.2290   18.5570 C.3   119  LYS119      0.0035
     63  CD        40.3690   31.3880   17.9370 C.3   119  LYS119      0.0206
     64  CE        40.3580   30.9830   16.4670 C.3   119  LYS119      0.1093
     65  NZ        40.7320   29.5640   16.2840 N.3   119  LYS119     -0.1314
     66  N         45.0570   22.3010   25.3670 N.3   178  TRP178     -0.1241
     67  CA        43.7180   21.9960   24.8720 C.3   178  TRP178      0.1605
     68  C         43.8590   21.8840   23.3540 C.2   178  TRP178      0.2264
     69  O         44.3890   22.7860   22.7060 O.2   178  TRP178     -0.2867
     70  CB        42.7220   23.1050   25.2370 C.3   178  TRP178      0.0550
     71  CG        41.3010   22.7030   24.9710 C.ar  178  TRP178      0.0003
     72  CD1       40.6940   22.5860   23.7500 C.ar  178  TRP178      0.0946
     73  CD2       40.3340   22.2780   25.9420 C.ar  178  TRP178      0.0152
     74  NE1       39.4140   22.1060   23.9030 N.ar  178  TRP178     -0.2442
     75  CE2       39.1680   21.9080   25.2380 C.ar  178  TRP178      0.0810
     76  CE3       40.3410   22.1720   27.3390 C.ar  178  TRP178      0.0012
     77  CZ2       38.0190   21.4390   25.8830 C.ar  178  TRP178      0.0191
     78  CZ3       39.1990   21.7070   27.9790 C.ar  178  TRP178      0.0001
     79  CH2       38.0550   21.3450   27.2510 C.ar  178  TRP178      0.0015
     80  N         43.3070   21.7950   19.2580 N.3   180  ASP180     -0.1225
     81  CA        42.7170   22.7640   18.3370 C.3   180  ASP180      0.1805
     82  C         41.2710   22.3950   18.0230 C.2   180  ASP180      0.2598
     83  O         40.4200   23.2710   17.9050 O.2   180  ASP180     -0.2718
     84  CB        43.5230   22.8520   17.0360 C.3   180  ASP180      0.1424
     85  CG        44.5480   23.9800   17.0620 C.2   180  ASP180      0.3668
     86  OD1       45.1580   24.2740   16.0100 O.co2 180  ASP180     -0.2456
     87  OD2       44.7420   24.5770   18.1400 O.co2 180  ASP180     -0.2456
     88  N         40.9990   21.1010   17.8800 N.am  181  PHE181     -0.1962
     89  CA        39.6410   20.6340   17.6090 C.3   181  PHE181      0.1771
     90  C         39.2460   19.6140   18.6690 C.2   181  PHE181      0.2620
     91  O         40.1050   18.9390   19.2370 O.2   181  PHE181     -0.2715
     92  CB        39.5430   19.9590   16.2320 C.3   181  PHE181      0.0574
     93  CG        39.9160   20.8500   15.0800 C.ar  181  PHE181     -0.0200
     94  CD1       41.2510   21.0760   14.7590 C.ar  181  PHE181     -0.0042
     95  CD2       38.9300   21.4680   14.3160 C.ar  181  PHE181     -0.0042
     96  CE1       41.6010   21.9020   13.6930 C.ar  181  PHE181     -0.0003
     97  CE2       39.2710   22.2980   13.2470 C.ar  181  PHE181     -0.0003
     98  CZ        40.6070   22.5150   12.9360 C.ar  181  PHE181     -0.0000
     99  N         37.9480   19.5010   18.9330 N.am  182  GLY182     -0.1954
    100  CA        37.4760   18.5300   19.9050 C.3   182  GLY182      0.1869
    101  C         37.8250   18.8190   21.3520 C.2   182  GLY182      0.2309
    102  O         38.0590   19.9630   21.7320 O.2   182  GLY182     -0.2863
    103  N         38.5090   31.8170   27.5280 N.3   214  CYS214     -0.1221
    104  CA        39.0560   31.0060   26.4460 C.3   214  CYS214      0.1808
    105  C         38.9040   31.9810   25.2800 C.2   214  CYS214      0.2602
    106  O         39.4760   33.0750   25.3320 O.2   214  CYS214     -0.2717
    107  CB        38.2710   29.6930   26.2320 C.3   214  CYS214      0.0970
    108  SG        36.4580   29.7250   26.4180 S.3   214  CYS214     -0.0800
    109  N         38.1570   31.6290   24.2430 N.am  215  SER215     -0.1938
    110  CA        37.9730   32.5810   23.1520 C.3   215  SER215      0.2055
    111  C         36.6670   33.3440   23.3670 C.2   215  SER215      0.2643
    112  O         36.6710   34.5750   23.4660 O.2   215  SER215     -0.2714
    113  CB        37.9400   31.8950   21.7880 C.3   215  SER215      0.2130
    114  OG        38.0280   32.8940   20.7730 O.3   215  SER215     -0.2179
    115  N         35.5540   32.6130   23.4390 N.am  216  ALA216     -0.1963
    116  CA        34.2430   33.2300   23.6630 C.3   216  ALA216      0.1728
    117  C         33.9160   33.2660   25.1560 C.2   216  ALA216      0.2617
    118  O         33.0310   34.0040   25.5960 O.2   216  ALA216     -0.2715
    119  CB        33.1570   32.4550   22.9120 C.3   216  ALA216      0.0334
    120  N         34.6330   32.4630   25.9330 N.am  217  GLY217     -0.1940
    121  CA        34.3930   32.4300   27.3640 C.3   217  GLY217      0.2014
    122  C         33.0990   31.7300   27.7460 C.2   217  GLY217      0.2639
    123  O         32.4210   32.1530   28.6880 O.2   217  GLY217     -0.2714
    124  N         32.7550   30.6560   27.0350 N.am  218  ILE218     -0.1963
    125  CA        31.5340   29.9090   27.3420 C.3   218  ILE218      0.1727
    126  C         31.6970   28.3960   27.2220 C.2   218  ILE218      0.2617
    127  O         31.0990   27.6450   27.9940 O.2   218  ILE218     -0.2715
    128  CB        30.3590   30.3170   26.4180 C.3   218  ILE218      0.0290
    129  CG1       30.7030   29.9710   24.9640 C.3   218  ILE218      0.0022
    130  CG2       30.0750   31.7990   26.5650 C.3   218  ILE218      0.0023
    131  CD1       29.6120   30.2920   23.9570 C.3   218  ILE218      0.0001
    132  N         32.4900   27.9480   26.2490 N.am  219  GLY219     -0.1940
    133  CA        32.6840   26.5180   26.0500 C.3   219  GLY219      0.2014
    134  C         33.6690   25.8730   27.0080 C.2   219  GLY219      0.2638
    135  O         33.2730   25.1790   27.9510 O.2   219  GLY219     -0.2714
    136  N         34.9610   26.0900   26.7610 N.am  220  ARG220     -0.1977
    137  CA        36.0020   25.5340   27.6200 C.3   220  ARG220      0.1597
    138  C         35.8830   26.1150   29.0180 C.2   220  ARG220      0.2287
    139  O         36.0150   25.3960   29.9980 O.2   220  ARG220     -0.2864
    140  CB        37.3880   25.8340   27.0500 C.3   220  ARG220      0.0334
    141  CG        37.5590   25.3030   25.6330 C.3   220  ARG220      0.0492
    142  CD        38.9410   25.5780   25.0910 C.3   220  ARG220      0.2205
    143  NE        38.9950   25.4440   23.6360 N.pl3 220  ARG220     -0.0865
    144  CZ        40.0620   25.7540   22.9060 C.cat 220  ARG220      0.5346
    145  NH1       41.1550   26.2150   23.4970 N.pl3 220  ARG220      0.1354
    146  NH2       40.0430   25.6000   21.5870 N.pl3 220  ARG220      0.1354
    147  N         25.1770   32.9350   28.8110 N.3   257  MET257     -0.1230
    148  CA        24.6720   32.0460   27.7780 C.3   257  MET257      0.1702
    149  C         25.6630   31.0300   27.2090 C.2   257  MET257      0.2592
    150  O         26.8740   31.2460   27.2070 O.2   257  MET257     -0.2718
    151  CB        24.1360   32.8840   26.6180 C.3   257  MET257      0.0401
    152  CG        25.2210   33.7750   26.0010 C.3   257  MET257      0.0596
    153  SD        24.8190   34.5090   24.4010 S.3   257  MET257     -0.1393
    154  CE        23.6960   35.8170   24.8680 C.3   257  MET257      0.0692
    155  N         25.1170   29.9220   26.7180 N.am  258  GLY258     -0.1957
    156  CA        25.9030   28.8920   26.0600 C.3   258  GLY258      0.1869
    157  C         27.0610   28.1780   26.7290 C.2   258  GLY258      0.2309
    158  O         27.8900   27.5940   26.0380 O.2   258  GLY258     -0.2863
    159  N         29.4310   24.3670   24.7490 N.3   261  GLN261     -0.1231
    160  CA        28.9510   24.5400   23.3820 C.3   261  GLN261      0.1698
    161  C         28.7150   23.3150   22.5130 C.2   261  GLN261      0.2592
    162  O         28.1540   23.4400   21.4240 O.2   261  GLN261     -0.2718
    163  CB        29.8860   25.4970   22.6470 C.3   261  GLN261      0.0381
    164  CG        29.5610   26.9540   22.8970 C.3   261  GLN261      0.0905
    165  CD        28.2010   27.3200   22.3410 C.2   261  GLN261      0.2608
    166  OE1       28.0080   27.3570   21.1220 O.2   261  GLN261     -0.2717
    167  NE2       27.2430   27.5740   23.2290 N.am  261  GLN261     -0.0878
    168  N         29.1300   22.1380   22.9680 N.am  262  THR262     -0.1953
    169  CA        28.9320   20.9300   22.1720 C.3   262  THR262      0.1897
    170  C         28.6650   19.6990   23.0270 C.2   262  THR262      0.2313
    171  O         28.8930   19.7080   24.2370 O.2   262  THR262     -0.2863
    172  CB        30.1570   20.6210   21.3100 C.3   262  THR262      0.1794
    173  OG1       31.2650   20.3200   22.1610 O.3   262  THR262     -0.2208
    174  CG2       30.5060   21.8050   20.4220 C.3   262  THR262      0.0378
    175  N         31.8450   18.5400   24.5820 N.3   265  GLN265     -0.1245
    176  CA        32.2290   19.2590   25.7920 C.3   265  GLN265      0.1566
    177  C         31.3890   18.7960   26.9700 C.2   265  GLN265      0.2260
    178  O         31.8730   18.7390   28.1000 O.2   265  GLN265     -0.2867
    179  CB        32.0650   20.7700   25.6030 C.3   265  GLN265      0.0367
    180  CG        33.2010   21.4210   24.8340 C.3   265  GLN265      0.0905
    181  CD        33.0400   22.9290   24.7120 C.2   265  GLN265      0.2608
    182  OE1       32.0410   23.4980   25.1560 O.2   265  GLN265     -0.2717
    183  NE2       34.0310   23.5840   24.1060 N.am  265  GLN265     -0.0878
@<TRIPOS>BOND
     1    22    21    1
     2    51    50    2
     3    23    21    1
     4    21    20    2
     5    98    97   ar
     6    98    96   ar
     7    50    49    1
     8    97    95   ar
     9    96    94   ar
    10    52    49    1
    11    52    53    1
    12    49    48    1
    13    20    19    1
    14    95    93   ar
    15    19    18    1
    16    54    53    1
    17    54    55    1
    18    94    93   ar
    19    93    92    1
    20    48    41   am
    21    56    55    1
    22    42    41    2
    23    41    40    1
    24    18    17    1
    25    86    85   ar
    26    17    14    1
    27    92    89    1
    28    65    64    1
    29    64    63    1
    30    31    29   ar
    31    84    85    1
    32    84    81    1
    33    85    87   ar
    34    40    39    1
    35    40    43    1
    36    89    88    1
    37    89    90    1
    38    14    13    1
    39    14    15    1
    40     9     7   ar
    41     9    11   ar
    42    13     3   am
    43     7     6   ar
    44    29    28    1
    45    29    30   ar
    46    88    82   am
    47    83    82    2
    48    63    62    1
    49    82    81    1
    50    28    25    1
    51    81    80    1
    52    43    44    1
    53    15    24   am
    54    15    16    2
    55    24    25    1
    56    62    61    1
    57    57    58    1
    58    90    99   am
    59    90    91    2
    60    12    11    1
    61     2     3    1
    62     2     5    1
    63     2     1    1
    64    11    10   ar
    65     3     4    2
    66    99   100    1
    67     6     5    1
    68     6     8   ar
    69    25    26    1
    70    58    61    1
    71    58    59    1
    72    44    45    1
    73   100   101    1
    74    10     8   ar
    75    46    45   ar
    76   174   172    1
    77    26    27    2
    78    26    32   am
    79    59    60    2
    80   114   113    1
    81    45    47   ar
    82   166   165    2
    83    32    33    1
    84   172   173    1
    85   172   169    1
    86   101   102    2
    87   162   161    2
    88   146   144    1
    89    38    36    1
    90   113   110    1
    91   169   168    1
    92   169   170    1
    93   165   164    1
    94   165   167   am
    95    33    36    1
    96    33    34    1
    97   161   168   am
    98   161   160    1
    99    36    37    1
   100   163   164    1
   101   163   160    1
   102    69    68    2
   103   144   145    1
   104   144   143    2
   105   119   116    1
   106   170   171    2
   107   110   111    1
   108   110   109    1
   109    35    34    2
   110    68    67    1
   111   111   115   am
   112   111   112    2
   113   160   159    1
   114   115   116    1
   115   143   142    1
   116   116   117    1
   117    72    74   ar
   118    72    71   ar
   119    74    75   ar
   120   131   129    1
   121   183   181   am
   122   109   105   am
   123   153   154    1
   124   153   152    1
   125   175   176    1
   126   181   180    1
   127   181   182    2
   128   180   179    1
   129    67    70    1
   130    67    66    1
   131   129   128    1
   132    71    70    1
   133    71    73   ar
   134   142   141    1
   135   117   118    2
   136   117   120   am
   137    75    77   ar
   138    75    73   ar
   139   105   106    2
   140   105   104    1
   141   179   176    1
   142   141   140    1
   143   176   177    1
   144    77    79   ar
   145   120   121    1
   146    73    76   ar
   147   152   151    1
   148   158   157    2
   149   133   132    1
   150   133   134    1
   151   156   155    1
   152   156   157    1
   153   107   108    1
   154   107   104    1
   155   132   126   am
   156   128   130    1
   157   128   125    1
   158   104   103    1
   159   151   148    1
   160   155   149   am
   161   136   134   am
   162   136   137    1
   163   177   178    2
   164   134   135    2
   165   124   125    1
   166   124   122   am
   167   140   137    1
   168   150   149    2
   169   149   148    1
   170   126   125    1
   171   126   127    2
   172    79    78   ar
   173    76    78   ar
   174   121   122    1
   175   137   138    1
   176   122   123    2
   177   148   147    1
   178   138   139    2
