@<TRIPOS>MOLECULE
tmp/1onzA00.pdb
 136 128 0 0 0
SMALL
GASTEIGER

@<TRIPOS>ATOM
      1  N         32.7500   37.9430   19.5770 N.3    45  TYR45      -0.1241
      2  CA        31.7570   37.2380   18.7740 C.3    45  TYR45       0.1605
      3  C         30.4000   37.9070   18.8470 C.2    45  TYR45       0.2264
      4  O         29.9760   38.3770   19.9100 O.2    45  TYR45      -0.2867
      5  CB        31.6590   35.7810   19.2220 C.3    45  TYR45       0.0534
      6  CG        32.9780   35.0820   19.0940 C.ar   45  TYR45      -0.0201
      7  CD1       33.5630   34.8830   17.8400 C.ar   45  TYR45      -0.0009
      8  CD2       33.6730   34.6590   20.2270 C.ar   45  TYR45      -0.0009
      9  CE1       34.8190   34.2780   17.7170 C.ar   45  TYR45       0.0417
     10  CE2       34.9250   34.0520   20.1220 C.ar   45  TYR45       0.0417
     11  CZ        35.4940   33.8630   18.8660 C.ar   45  TYR45       0.1957
     12  OH        36.7260   33.2480   18.7680 O.3    45  TYR45      -0.2866
     13  N         27.4730   36.4440   18.3500 N.3    47  ASP47      -0.1225
     14  CA        26.5190   35.5980   19.0590 C.3    47  ASP47       0.1805
     15  C         26.8510   35.2430   20.5130 C.2    47  ASP47       0.2597
     16  O         26.1030   34.4910   21.1470 O.2    47  ASP47      -0.2718
     17  CB        26.2630   34.3130   18.2650 C.3    47  ASP47       0.1424
     18  CG        27.5310   33.7250   17.6940 C.2    47  ASP47       0.3668
     19  OD1       28.5840   33.8300   18.3660 O.co2  47  ASP47      -0.2456
     20  OD2       27.4730   33.1510   16.5810 O.co2  47  ASP47      -0.2456
     21  N         27.9530   35.7610   21.0530 N.am   48  VAL48      -0.1980
     22  CA        28.2810   35.4650   22.4520 C.3    48  VAL48       0.1595
     23  C         28.3060   36.7550   23.2450 C.2    48  VAL48       0.2287
     24  O         29.2690   37.5180   23.1920 O.2    48  VAL48      -0.2864
     25  CB        29.6330   34.7790   22.5920 C.3    48  VAL48       0.0276
     26  CG1       29.8820   34.4270   24.0670 C.3    48  VAL48       0.0022
     27  CG2       29.6610   33.5310   21.7330 C.3    48  VAL48       0.0022
     28  N         44.5310   26.8970   15.3880 N.3   115  LYS115     -0.1245
     29  CA        44.0650   26.6660   14.0240 C.3   115  LYS115      0.1561
     30  C         44.5620   27.7700   13.0860 C.2   115  LYS115      0.2260
     31  O         43.8660   28.1470   12.1400 O.2   115  LYS115     -0.2867
     32  CB        42.5270   26.6220   13.9700 C.3   115  LYS115      0.0271
     33  CG        41.8660   25.5470   14.8300 C.3   115  LYS115      0.0035
     34  CD        40.3470   25.6750   14.7340 C.3   115  LYS115      0.0206
     35  CE        39.6230   24.6130   15.5560 C.3   115  LYS115      0.1093
     36  NZ        38.1340   24.7670   15.4910 N.3   115  LYS115     -0.1314
     37  N         43.0610   33.8590   18.5930 N.3   119  LYS119     -0.1245
     38  CA        41.9020   33.5030   19.3880 C.3   119  LYS119      0.1561
     39  C         41.8580   34.3340   20.6580 C.2   119  LYS119      0.2260
     40  O         40.9130   34.2340   21.4510 O.2   119  LYS119     -0.2867
     41  CB        41.9850   32.0200   19.7490 C.3   119  LYS119      0.0271
     42  CG        41.6890   31.1090   18.5790 C.3   119  LYS119      0.0035
     43  CD        40.1870   31.0520   18.3470 C.3   119  LYS119      0.0206
     44  CE        39.8350   30.9670   16.8820 C.3   119  LYS119      0.1093
     45  NZ        40.4420   29.7750   16.2450 N.3   119  LYS119     -0.1314
     46  N         45.1380   22.1760   25.4950 N.3   178  TRP178     -0.1241
     47  CA        43.8100   21.8370   25.0040 C.3   178  TRP178      0.1605
     48  C         43.8920   21.6770   23.4870 C.2   178  TRP178      0.2264
     49  O         44.3880   22.5620   22.7830 O.2   178  TRP178     -0.2867
     50  CB        42.7910   22.9220   25.3850 C.3   178  TRP178      0.0550
     51  CG        41.3650   22.5560   25.0510 C.ar  178  TRP178      0.0003
     52  CD1       40.7940   22.5260   23.8100 C.ar  178  TRP178      0.0946
     53  CD2       40.3500   22.1280   25.9710 C.ar  178  TRP178      0.0152
     54  NE1       39.4880   22.1020   23.8990 N.ar  178  TRP178     -0.2442
     55  CE2       39.1900   21.8510   25.2130 C.ar  178  TRP178      0.0810
     56  CE3       40.3070   21.9520   27.3610 C.ar  178  TRP178      0.0012
     57  CZ2       37.9980   21.4060   25.8020 C.ar  178  TRP178      0.0191
     58  CZ3       39.1210   21.5100   27.9460 C.ar  178  TRP178      0.0001
     59  CH2       37.9840   21.2420   27.1660 C.ar  178  TRP178      0.0015
     60  N         43.2900   21.4230   19.3930 N.3   180  ASP180     -0.1239
     61  CA        42.7760   22.3780   18.4220 C.3   180  ASP180      0.1674
     62  C         41.3370   22.0160   18.0760 C.2   180  ASP180      0.2266
     63  O         40.4810   22.8940   17.9670 O.2   180  ASP180     -0.2867
     64  CB        43.6410   22.3650   17.1610 C.3   180  ASP180      0.1410
     65  CG        44.3100   23.6990   16.9060 C.2   180  ASP180      0.3668
     66  OD1       44.9590   23.8530   15.8500 O.co2 180  ASP180     -0.2456
     67  OD2       44.1850   24.5960   17.7650 O.co2 180  ASP180     -0.2456
     68  N         38.0140   19.1610   18.9590 N.3   182  GLY182     -0.1225
     69  CA        37.5030   18.2210   19.9430 C.3   182  GLY182      0.1811
     70  C         37.8580   18.5400   21.3820 C.2   182  GLY182      0.2280
     71  O         38.0910   19.6970   21.7240 O.2   182  GLY182     -0.2866
     72  N         38.6080   31.4850   27.5160 N.3   214  CYS214     -0.1221
     73  CA        39.1730   30.7140   26.4170 C.3   214  CYS214      0.1808
     74  C         39.0440   31.7250   25.2880 C.2   214  CYS214      0.2602
     75  O         39.6600   32.7820   25.3550 O.2   214  CYS214     -0.2717
     76  CB        38.3520   29.4490   26.1400 C.3   214  CYS214      0.0970
     77  SG        36.5830   29.6120   26.4180 S.3   214  CYS214     -0.0800
     78  N         38.2640   31.4430   24.2560 N.am  215  SER215     -0.1938
     79  CA        38.1170   32.4550   23.2190 C.3   215  SER215      0.2055
     80  C         36.7730   33.1810   23.3960 C.2   215  SER215      0.2642
     81  O         36.7250   34.4150   23.4600 O.2   215  SER215     -0.2714
     82  CB        38.2240   31.8470   21.8160 C.3   215  SER215      0.2130
     83  OG        38.3790   32.8820   20.8540 O.3   215  SER215     -0.2179
     84  N         35.6860   32.4220   23.4910 N.am  216  ALA216     -0.1977
     85  CA        34.3690   33.0220   23.6820 C.3   216  ALA216      0.1597
     86  C         34.0330   33.0740   25.1650 C.2   216  ALA216      0.2287
     87  O         33.1600   33.8300   25.5940 O.2   216  ALA216     -0.2864
     88  CB        33.3100   32.2180   22.9350 C.3   216  ALA216      0.0319
     89  N         32.8260   30.4910   26.9990 N.3   218  ILE218     -0.1231
     90  CA        31.5800   29.7860   27.2710 C.3   218  ILE218      0.1692
     91  C         31.7230   28.2680   27.1480 C.2   218  ILE218      0.2593
     92  O         31.1060   27.5160   27.9090 O.2   218  ILE218     -0.2718
     93  CB        30.4430   30.2730   26.3200 C.3   218  ILE218      0.0266
     94  CG1       30.7470   29.8500   24.8760 C.3   218  ILE218      0.0019
     95  CG2       30.3050   31.8020   26.4170 C.3   218  ILE218      0.0020
     96  CD1       29.7180   30.3140   23.8650 C.3   218  ILE218      0.0001
     97  N         32.5410   27.8280   26.1900 N.am  219  GLY219     -0.1942
     98  CA        32.7410   26.4030   25.9710 C.3   219  GLY219      0.2014
     99  C         33.6940   25.7410   26.9460 C.2   219  GLY219      0.2638
    100  O         33.2760   24.9450   27.7970 O.2   219  GLY219     -0.2714
    101  N         34.9810   26.0520   26.8140 N.am  220  ARG220     -0.1977
    102  CA        35.9960   25.4820   27.6980 C.3   220  ARG220      0.1597
    103  C         35.8750   26.0760   29.0960 C.2   220  ARG220      0.2287
    104  O         36.0640   25.3800   30.0890 O.2   220  ARG220     -0.2864
    105  CB        37.3980   25.7380   27.1390 C.3   220  ARG220      0.0334
    106  CG        37.6320   25.1210   25.7660 C.3   220  ARG220      0.0492
    107  CD        39.0060   25.4470   25.2500 C.3   220  ARG220      0.2205
    108  NE        39.1270   25.1780   23.8210 N.pl3 220  ARG220     -0.0865
    109  CZ        40.1590   25.5530   23.0710 C.cat 220  ARG220      0.5346
    110  NH1       41.1700   26.2200   23.6130 N.pl3 220  ARG220      0.1354
    111  NH2       40.1750   25.2560   21.7810 N.pl3 220  ARG220      0.1354
    112  N         29.6490   24.1770   24.6600 N.3   261  GLN261     -0.1231
    113  CA        29.1910   24.3610   23.2860 C.3   261  GLN261      0.1698
    114  C         28.9390   23.1180   22.4380 C.2   261  GLN261      0.2592
    115  O         28.3760   23.2290   21.3500 O.2   261  GLN261     -0.2718
    116  CB        30.1780   25.2640   22.5500 C.3   261  GLN261      0.0381
    117  CG        30.1390   26.7070   22.9890 C.3   261  GLN261      0.0905
    118  CD        28.9390   27.4470   22.4290 C.2   261  GLN261      0.2608
    119  OE1       28.8830   27.7470   21.2340 O.2   261  GLN261     -0.2717
    120  NE2       27.9650   27.7380   23.2910 N.am  261  GLN261     -0.0878
    121  N         29.3520   21.9470   22.9150 N.am  262  THR262     -0.1953
    122  CA        29.1540   20.7100   22.1550 C.3   262  THR262      0.1897
    123  C         28.8460   19.4970   23.0150 C.2   262  THR262      0.2313
    124  O         29.0790   19.5000   24.2270 O.2   262  THR262     -0.2863
    125  CB        30.4000   20.3200   21.3420 C.3   262  THR262      0.1794
    126  OG1       31.4650   19.9880   22.2420 O.3   262  THR262     -0.2208
    127  CG2       30.8320   21.4520   20.4410 C.3   262  THR262      0.0378
    128  N         31.9760   18.2340   24.5400 N.3   265  GLN265     -0.1245
    129  CA        32.3180   18.9960   25.7310 C.3   265  GLN265      0.1566
    130  C         31.5110   18.5360   26.9360 C.2   265  GLN265      0.2260
    131  O         32.0400   18.4420   28.0460 O.2   265  GLN265     -0.2867
    132  CB        32.0900   20.4910   25.4830 C.3   265  GLN265      0.0367
    133  CG        33.3220   21.2180   24.9660 C.3   265  GLN265      0.0905
    134  CD        33.0350   22.6490   24.5550 C.2   265  GLN265      0.2608
    135  OE1       32.3090   23.3680   25.2370 O.2   265  GLN265     -0.2717
    136  NE2       33.6210   23.0750   23.4400 N.am  265  GLN265     -0.0878
@<TRIPOS>BOND
     1    31    30    2
     2    30    29    1
     3    32    29    1
     4    32    33    1
     5    29    28    1
     6    34    33    1
     7    34    35    1
     8    36    35    1
     9    66    65   ar
    10    45    44    1
    11    20    18   ar
    12    44    43    1
    13    65    64    1
    14    65    67   ar
    15    64    61    1
    16    18    17    1
    17    18    19   ar
    18     9     7   ar
    19     9    11   ar
    20     7     6   ar
    21    63    62    2
    22    62    61    1
    23    17    14    1
    24    43    42    1
    25    13    14    1
    26    61    60    1
    27    42    41    1
    28    37    38    1
    29    12    11    1
    30     2     3    1
    31     2     5    1
    32     2     1    1
    33     3     4    2
    34    11    10   ar
    35    68    69    1
    36    14    15    1
    37     6     5    1
    38     6     8   ar
    39    38    41    1
    40    38    39    1
    41    69    70    1
    42    10     8   ar
    43   127   125    1
    44    15    21   am
    45    15    16    2
    46    39    40    2
    47    83    82    1
    48    21    22    1
    49   119   118    2
    50   125   122    1
    51   125   126    1
    52   115   114    2
    53    70    71    2
    54    27    25    1
    55   111   109    1
    56    82    79    1
    57   122   121    1
    58   122   123    1
    59   118   117    1
    60   118   120   am
    61   114   121   am
    62   114   113    1
    63    22    25    1
    64    22    23    1
    65   116   117    1
    66   116   113    1
    67    25    26    1
    68    49    48    2
    69    88    85    1
    70   123   124    2
    71   109   110    1
    72   109   108    2
    73    24    23    2
    74    79    80    1
    75    79    78    1
    76   113   112    1
    77    80    81    2
    78    80    84   am
    79   136   134   am
    80    48    47    1
    81    84    85    1
    82    85    86    1
    83    52    54   ar
    84    52    51   ar
    85   108   107    1
    86    96    94    1
    87    54    55   ar
    88    78    74   am
    89   128   129    1
    90   134   133    1
    91   134   135    2
    92    94    93    1
    93   133   132    1
    94    47    50    1
    95    47    46    1
    96    51    50    1
    97    51    53   ar
    98    86    87    2
    99    55    57   ar
   100    55    53   ar
   101   107   106    1
   102    74    75    2
   103    74    73    1
   104   132   129    1
   105   129   130    1
   106   106   105    1
   107    57    59   ar
   108    98    97    1
   109    98    99    1
   110    53    56   ar
   111    76    73    1
   112    76    77    1
   113    97    91   am
   114    93    95    1
   115    93    90    1
   116    73    72    1
   117   101    99   am
   118   101   102    1
   119   130   131    2
   120    99   100    2
   121    89    90    1
   122   105   102    1
   123    91    90    1
   124    91    92    2
   125    59    58   ar
   126    56    58   ar
   127   102   103    1
   128   103   104    2
