@<TRIPOS>MOLECULE
tmp/1oo0A01.pdb
 113 114 0 0 0
SMALL
GASTEIGER

@<TRIPOS>ATOM
      1  N         45.6490   14.6050    5.9930 N.3     8  TYR8       -0.1241
      2  CA        46.3600   13.3270    5.9470 C.3     8  TYR8        0.1605
      3  C         45.8240   12.4310    7.0210 C.2     8  TYR8        0.2264
      4  O         45.5110   12.8920    8.1320 O.2     8  TYR8       -0.2867
      5  CB        47.8540   13.5490    6.2180 C.3     8  TYR8        0.0534
      6  CG        48.6190   12.2570    6.4410 C.ar    8  TYR8       -0.0201
      7  CD1       49.2160   11.5950    5.3730 C.ar    8  TYR8       -0.0009
      8  CD2       48.7080   11.6920    7.7130 C.ar    8  TYR8       -0.0009
      9  CE1       49.8950   10.3840    5.5580 C.ar    8  TYR8        0.0417
     10  CE2       49.3810   10.4780    7.9140 C.ar    8  TYR8        0.0417
     11  CZ        49.9720    9.8410    6.8200 C.ar    8  TYR8        0.1957
     12  OH        50.6490    8.6680    7.0030 O.3     8  TYR8       -0.2866
     13  N         46.6630    8.4070    8.4040 N.3    10  GLY10      -0.1210
     14  CA        47.4430    7.2140    8.1490 C.3    10  GLY10       0.1956
     15  C         47.3000    6.2870    9.3220 C.2    10  GLY10       0.2612
     16  O         47.0220    6.7160   10.4330 O.2    10  GLY10      -0.2717
     17  N         47.4800    4.9980    9.0960 N.am   11  HIS11      -0.1961
     18  CA        47.3860    4.1130   10.2230 C.3    11  HIS11       0.1787
     19  C         48.0100    2.7600    9.9380 C.2    11  HIS11       0.2620
     20  O         48.3460    2.4290    8.7810 O.2    11  HIS11      -0.2715
     21  CB        45.9310    4.1000   10.7450 C.3    11  HIS11       0.0785
     22  CG        45.1300    2.8780   10.4190 C.ar   11  HIS11       0.0821
     23  ND1       44.6920    2.5860    9.1480 N.ar   11  HIS11      -0.2267
     24  CD2       44.6200    1.9140   11.2250 C.ar   11  HIS11       0.1154
     25  CE1       43.9500    1.4920    9.1800 C.ar   11  HIS11       0.1986
     26  NE2       43.8890    1.0650   10.4290 N.ar   11  HIS11      -0.2212
     27  N         48.3410    2.0790   11.0240 N.am   12  LYS12      -0.1977
     28  CA        48.9390    0.7600   10.9740 C.3    12  LYS12       0.1596
     29  C         47.8310   -0.1240   11.5210 C.2    12  LYS12       0.2287
     30  O         47.6060   -0.1520   12.7200 O.2    12  LYS12      -0.2864
     31  CB        50.1610    0.6990   11.8880 C.3    12  LYS12       0.0298
     32  CG        50.7810   -0.6860   12.0100 C.3    12  LYS12       0.0038
     33  CD        52.2320   -0.5810   12.4580 C.3    12  LYS12       0.0206
     34  CE        52.9370   -1.9190   12.3490 C.3    12  LYS12       0.1093
     35  NZ        54.4240   -1.7570   12.2460 N.3    12  LYS12      -0.1314
     36  N         49.6590   -0.9890    6.8650 N.3    17  HIS17      -0.1226
     37  CA        49.5170    0.4590    6.6660 C.3    17  HIS17       0.1752
     38  C         48.3360    0.8600    5.8040 C.2    17  HIS17       0.2596
     39  O         47.6240    0.0380    5.2220 O.2    17  HIS17      -0.2718
     40  CB        50.7680    1.0510    6.0350 C.3    17  HIS17       0.0759
     41  CG        51.8950    1.2130    6.9940 C.ar   17  HIS17       0.0818
     42  ND1       52.1380    0.3110    8.0070 N.ar   17  HIS17      -0.2268
     43  CD2       52.8440    2.1730    7.1010 C.ar   17  HIS17       0.1154
     44  CE1       53.1900    0.7110    8.7010 C.ar   17  HIS17       0.1986
     45  NE2       53.6380    1.8380    8.1720 N.ar   17  HIS17      -0.2212
     46  N         48.1690    2.1600    5.6830 N.am   18  GLU18      -0.1965
     47  CA        47.0540    2.6700    4.9430 C.3    18  GLU18       0.1733
     48  C         47.2630    4.1570    5.1160 C.2    18  GLU18       0.2616
     49  O         47.6460    4.5750    6.2130 O.2    18  GLU18      -0.2715
     50  CB        45.7870    2.2910    5.6950 C.3    18  GLU18       0.0429
     51  CG        44.5400    2.0460    4.9040 C.3    18  GLU18       0.1163
     52  CD        43.4150    1.4740    5.7680 C.2    18  GLU18       0.3649
     53  OE1       43.4710    0.2620    6.1080 O.co2  18  GLU18      -0.2457
     54  OE2       42.4800    2.2410    6.1170 O.co2  18  GLU18      -0.2457
     55  N         47.0810    4.9290    4.0490 N.am   19  PHE19      -0.1974
     56  CA        47.1070    6.3870    4.2240 C.3    19  PHE19       0.1639
     57  C         46.3020    7.0240    3.1180 C.2    19  PHE19       0.2290
     58  O         46.1040    6.4420    2.0500 O.2    19  PHE19      -0.2864
     59  CB        48.5250    6.9390    4.3060 C.3    19  PHE19       0.0560
     60  CG        49.1830    7.1460    2.9680 C.ar   19  PHE19      -0.0200
     61  CD1       48.9450    8.3040    2.2250 C.ar   19  PHE19      -0.0042
     62  CD2       50.0130    6.1870    2.4450 C.ar   19  PHE19      -0.0042
     63  CE1       49.5350    8.4970    0.9690 C.ar   19  PHE19      -0.0003
     64  CE2       50.6050    6.3630    1.1860 C.ar   19  PHE19      -0.0003
     65  CZ        50.3600    7.5310    0.4540 C.ar   19  PHE19      -0.0000
     66  N         48.6380   12.0500   18.2060 N.3    78  PRO78      -0.2102
     67  CA        48.7490   10.9340   17.2650 C.3    78  PRO78       0.1504
     68  C         49.4920    9.8370   18.0400 C.2    78  PRO78       0.2576
     69  O         50.2400   10.1340   18.9720 O.2    78  PRO78      -0.2718
     70  CB        49.6030   11.5040   16.1330 C.3    78  PRO78       0.0282
     71  CG        50.3630   12.6370   16.7960 C.3    78  PRO78       0.0208
     72  CD        49.2990   13.2530   17.6850 C.3    78  PRO78       0.0893
     73  N         49.2710    8.5790   17.6900 N.am   79  ASP79      -0.1960
     74  CA        49.9480    7.4790   18.3880 C.3    79  ASP79       0.1840
     75  C         50.5740    6.4960   17.4100 C.2    79  ASP79       0.2622
     76  O         50.4500    6.6420   16.1980 O.2    79  ASP79      -0.2715
     77  CB        48.9950    6.7290   19.3280 C.3    79  ASP79       0.1450
     78  CG        47.6870    6.3340   18.6700 C.2    79  ASP79       0.3671
     79  OD1       47.6760    5.9050   17.4900 O.co2  79  ASP79      -0.2456
     80  OD2       46.6540    6.4370   19.3590 O.co2  79  ASP79      -0.2456
     81  N         51.2520    5.4860   17.9340 N.am   80  ARG80      -0.1963
     82  CA        51.8980    4.5300   17.0620 C.3    80  ARG80       0.1729
     83  C         50.9280    3.7820   16.1470 C.2    80  ARG80       0.2616
     84  O         51.3600    3.0820   15.2260 O.2    80  ARG80      -0.2715
     85  CB        52.7510    3.5740   17.9090 C.3    80  ARG80       0.0348
     86  CG        54.0000    4.2790   18.4740 C.3    80  ARG80       0.0492
     87  CD        54.7930    3.4410   19.4750 C.3    80  ARG80       0.2205
     88  NE        53.9820    3.0580   20.6290 N.pl3  80  ARG80      -0.0865
     89  CZ        54.4590    2.4360   21.7010 C.cat  80  ARG80       0.5346
     90  NH1       55.7480    2.1270   21.7710 N.pl3  80  ARG80       0.1354
     91  NH2       53.6430    2.1150   22.6960 N.pl3  80  ARG80       0.1354
     92  N         49.6230    3.9680   16.3580 N.am   81  VAL81      -0.1963
     93  CA        48.6080    3.3050   15.5410 C.3    81  VAL81       0.1727
     94  C         47.8560    4.1630   14.4920 C.2    81  VAL81       0.2617
     95  O         47.4070    3.6640   13.4630 O.2    81  VAL81      -0.2715
     96  CB        47.5590    2.6330   16.4500 C.3    81  VAL81       0.0290
     97  CG1       46.1880    2.6840   15.8150 C.3    81  VAL81       0.0023
     98  CG2       47.9510    1.1670   16.6880 C.3    81  VAL81       0.0023
     99  N         47.6820    5.4460   14.7610 N.am   82  GLY82      -0.1940
    100  CA        46.9560    6.2600   13.8120 C.3    82  GLY82       0.2014
    101  C         47.3540    7.7120   13.9680 C.2    82  GLY82       0.2638
    102  O         47.8680    8.1030   15.0150 O.2    82  GLY82      -0.2714
    103  N         47.1020    8.5030   12.9290 N.am   83  ARG83      -0.1977
    104  CA        47.4430    9.9170   12.9490 C.3    83  ARG83       0.1597
    105  C         46.5970   10.6460   11.9320 C.2    83  ARG83       0.2287
    106  O         46.3740   10.1390   10.8250 O.2    83  ARG83      -0.2864
    107  CB        48.9130   10.0320   12.5430 C.3    83  ARG83       0.0334
    108  CG        49.4760   11.3530   12.3860 C.3    83  ARG83       0.0492
    109  CD        50.7990   11.2360   11.6720 C.3    83  ARG83       0.2205
    110  NE        51.4760   12.5090   11.7650 N.pl3  83  ARG83      -0.0865
    111  CZ        52.1190   12.9050   12.8480 C.cat  83  ARG83       0.5346
    112  NH1       52.1680   12.0960   13.9000 N.pl3  83  ARG83       0.1354
    113  NH2       52.6750   14.0960   12.8830 N.pl3  83  ARG83       0.1354
@<TRIPOS>BOND
     1    65    63   ar
     2    65    64   ar
     3    63    61   ar
     4    64    62   ar
     5    58    57    2
     6    61    60   ar
     7    62    60   ar
     8    60    59    1
     9    57    56    1
    10    55    56    1
    11    55    48   am
    12    56    59    1
    13    51    50    1
    14    51    52    1
    15    47    48    1
    16    47    46    1
    17    47    50    1
    18    48    49    2
    19    39    38    2
    20     7     9   ar
    21     7     6   ar
    22     9    11   ar
    23    46    38   am
    24    52    53   ar
    25    52    54   ar
    26    38    37    1
    27     2     1    1
    28     2     5    1
    29     2     3    1
    30    40    37    1
    31    40    41    1
    32     5     6    1
    33     6     8   ar
    34    37    36    1
    35    11    12    1
    36    11    10   ar
    37    41    43   ar
    38    41    42   ar
    39     3     4    2
    40    43    45   ar
    41     8    10   ar
    42    42    44   ar
    43    14    13    1
    44    14    15    1
    45    45    44   ar
    46    20    19    2
    47    17    15   am
    48    17    18    1
    49    23    25   ar
    50    23    22   ar
    51    25    26   ar
    52    15    16    2
    53    19    18    1
    54    19    27   am
    55    18    21    1
    56    22    21    1
    57    22    24   ar
    58    26    24   ar
    59   106   105    2
    60    28    27    1
    61    28    29    1
    62    28    31    1
    63    29    30    2
    64   109   110    1
    65   109   108    1
    66   110   111    2
    67    31    32    1
    68   105   104    1
    69    32    33    1
    70    35    34    1
    71    34    33    1
    72   108   107    1
    73   107   104    1
    74   111   113    1
    75   111   112    1
    76   103   104    1
    77   103   101   am
    78    95    94    2
    79   100   101    1
    80   100    99    1
    81   101   102    2
    82    94    99   am
    83    94    93    1
    84    84    83    2
    85    93    92    1
    86    93    96    1
    87    97    96    1
    88    70    71    1
    89    70    67    1
    90    83    92   am
    91    83    82    1
    92    76    75    2
    93    96    98    1
    94    71    72    1
    95    82    85    1
    96    82    81    1
    97    67    68    1
    98    67    66    1
    99    75    81   am
   100    75    74    1
   101    79    78   ar
   102    72    66    1
   103    73    68   am
   104    73    74    1
   105    85    86    1
   106    68    69    2
   107    74    77    1
   108    86    87    1
   109    78    77    1
   110    78    80   ar
   111    87    88    1
   112    88    89    2
   113    89    90    1
   114    89    91    1
