@<TRIPOS>MOLECULE
tmp/1oonA02.pdb
 102 99 0 0 0
SMALL
GASTEIGER

@<TRIPOS>ATOM
      1  N          0.0230  -17.5650   50.2100 N.3    39  SER39      -0.1202
      2  CA        -1.2990  -17.2840   50.7890 C.3    39  SER39       0.2020
      3  C         -1.5170  -15.7840   50.8720 C.2    39  SER39       0.2619
      4  O         -0.6790  -15.0700   51.4250 O.2    39  SER39      -0.2717
      5  CB        -1.4330  -17.9100   52.1750 C.3    39  SER39       0.2103
      6  OG        -2.7840  -18.2330   52.4400 O.3    39  SER39      -0.2182
      7  N         -2.5910  -15.3230   50.2200 N.am   40  THR40      -0.1938
      8  CA        -3.0050  -13.9090   50.1510 C.3    40  THR40       0.2028
      9  C         -1.9770  -13.0100   49.4650 C.2    40  THR40       0.2642
     10  O         -1.9870  -11.7920   49.6610 O.2    40  THR40      -0.2714
     11  CB        -3.3800  -13.2910   51.5520 C.3    40  THR40       0.1808
     12  OG1       -2.2120  -13.1750   52.3810 O.3    40  THR40      -0.2208
     13  CG2       -4.4440  -14.1080   52.2650 C.3    40  THR40       0.0379
     14  N         -1.0900  -13.6240   48.6680 N.am   41  ASN41      -0.1971
     15  CA        -0.0130  -12.9390   47.9260 C.3    41  ASN41       0.1688
     16  C          0.8930  -12.2190   48.9390 C.2    41  ASN41       0.2292
     17  O          1.5760  -11.2500   48.6060 O.2    41  ASN41      -0.2864
     18  CB        -0.5980  -11.9530   46.8880 C.3    41  ASN41       0.1181
     19  CG         0.3340  -11.6960   45.7100 C.2    41  ASN41       0.2629
     20  OD1        0.3770  -10.5860   45.1850 O.2    41  ASN41      -0.2716
     21  ND2        1.0690  -12.7200   45.2810 N.am   41  ASN41      -0.0877
     22  N         -0.3950   -4.1910   44.5400 N.3   101  GLU101     -0.1245
     23  CA        -1.5070   -4.7710   43.7920 C.3   101  GLU101      0.1567
     24  C         -2.3590   -3.6440   43.1860 C.2   101  GLU101      0.2260
     25  O         -3.0150   -3.8350   42.1620 O.2   101  GLU101     -0.2867
     26  CB        -2.3570   -5.6770   44.6940 C.3   101  GLU101      0.0388
     27  CG        -1.7060   -7.0140   45.0540 C.3   101  GLU101      0.1160
     28  CD        -2.6820   -8.1820   45.0750 C.2   101  GLU101      0.3649
     29  OE1       -2.7240   -8.8980   46.0980 O.co2 101  GLU101     -0.2457
     30  OE2       -3.3910   -8.4000   44.0680 O.co2 101  GLU101     -0.2457
     31  N         -4.9450   -4.2780   39.7790 N.3   106  ARG106     -0.1231
     32  CA        -5.7950   -5.4120   40.1500 C.3   106  ARG106      0.1694
     33  C         -7.1520   -4.9510   40.6480 C.2   106  ARG106      0.2592
     34  O         -8.0880   -5.7500   40.7360 O.2   106  ARG106     -0.2718
     35  CB        -5.1400   -6.2600   41.2500 C.3   106  ARG106      0.0321
     36  CG        -3.7180   -6.7270   40.9520 C.3   106  ARG106      0.0489
     37  CD        -3.6570   -8.1370   40.4470 C.3   106  ARG106      0.2205
     38  NE        -4.2300   -9.1120   41.3750 N.pl3 106  ARG106     -0.0865
     39  CZ        -4.6400  -10.3280   41.0220 C.cat 106  ARG106      0.5346
     40  NH1       -4.5420  -10.7420   39.7620 N.pl3 106  ARG106      0.1354
     41  NH2       -5.1630  -11.1350   41.9290 N.pl3 106  ARG106      0.1354
     42  N         -7.2380   -3.6750   41.0240 N.am  107  PHE107     -0.1976
     43  CA        -8.4790   -3.0930   41.5340 C.3   107  PHE107      0.1639
     44  C         -9.0370   -1.9550   40.6920 C.2   107  PHE107      0.2290
     45  O         -8.3370   -0.9810   40.3950 O.2   107  PHE107     -0.2864
     46  CB        -8.2940   -2.6150   42.9800 C.3   107  PHE107      0.0560
     47  CG        -7.5770   -3.5980   43.8620 C.ar  107  PHE107     -0.0200
     48  CD1       -8.1170   -4.8800   44.1090 C.ar  107  PHE107     -0.0042
     49  CD2       -6.3480   -3.2540   44.4430 C.ar  107  PHE107     -0.0042
     50  CE1       -7.4330   -5.8090   44.9280 C.ar  107  PHE107     -0.0003
     51  CE2       -5.6510   -4.1660   45.2670 C.ar  107  PHE107     -0.0003
     52  CZ        -6.1920   -5.4470   45.5110 C.ar  107  PHE107     -0.0000
     53  N        -11.3540   -4.3910   50.2260 N.3   115  ALA115     -0.1231
     54  CA       -11.9260   -5.7380   50.3590 C.3   115  ALA115      0.1694
     55  C        -10.8500   -6.8300   50.3970 C.2   115  ALA115      0.2592
     56  O        -11.0260   -7.8680   51.0440 O.2   115  ALA115     -0.2718
     57  CB       -12.9080   -6.0040   49.2260 C.3   115  ALA115      0.0304
     58  N         -9.7400   -6.5720   49.7040 N.am  116  ASN116     -0.1974
     59  CA        -8.6030   -7.4890   49.6240 C.3   116  ASN116      0.1688
     60  C         -7.7450   -7.3570   50.8850 C.2   116  ASN116      0.2292
     61  O         -7.2300   -8.3560   51.3980 O.2   116  ASN116     -0.2864
     62  CB        -7.7810   -7.1750   48.3700 C.3   116  ASN116      0.1181
     63  CG        -6.4830   -7.9630   48.2880 C.2   116  ASN116      0.2629
     64  OD1       -6.4720   -9.1830   48.4190 O.2   116  ASN116     -0.2716
     65  ND2       -5.3810   -7.2560   48.0890 N.am  116  ASN116     -0.0877
     66  N         -9.4480   -9.1160   53.5720 N.3   119  GLY119     -0.1210
     67  CA        -9.2900  -10.5460   53.3350 C.3   119  GLY119      0.1956
     68  C         -7.8970  -11.0610   53.6600 C.2   119  GLY119      0.2611
     69  O         -7.7270  -12.2480   53.9490 O.2   119  GLY119     -0.2717
     70  N         -6.9090  -10.1640   53.6080 N.am  120  ARG120     -0.1979
     71  CA        -5.5150  -10.4920   53.9000 C.3   120  ARG120      0.1597
     72  C         -5.3480  -10.4810   55.4060 C.2   120  ARG120      0.2287
     73  O         -4.7620  -11.3990   55.9790 O.2   120  ARG120     -0.2864
     74  CB        -4.5690   -9.4560   53.2870 C.3   120  ARG120      0.0334
     75  CG        -3.0800   -9.8230   53.3500 C.3   120  ARG120      0.0492
     76  CD        -2.2300   -8.9910   52.4010 C.3   120  ARG120      0.2205
     77  NE        -2.4010   -9.3840   51.0030 N.pl3 120  ARG120     -0.0865
     78  CZ        -3.1520   -8.7260   50.1170 C.cat 120  ARG120      0.5346
     79  NH1       -3.8080   -7.6260   50.4790 N.pl3 120  ARG120      0.1354
     80  NH2       -3.2720   -9.1840   48.8780 N.pl3 120  ARG120      0.1354
     81  N         -7.6420  -10.9420   57.6510 N.3   122  PHE122     -0.1227
     82  CA        -8.4550  -11.9810   58.2980 C.3   122  PHE122      0.1736
     83  C         -7.5680  -13.2150   58.5090 C.2   122  PHE122      0.2595
     84  O         -7.6080  -13.8500   59.5660 O.2   122  PHE122     -0.2718
     85  CB        -9.6830  -12.3320   57.4240 C.3   122  PHE122      0.0547
     86  CG       -10.4720  -13.5320   57.9080 C.ar  122  PHE122     -0.0202
     87  CD1      -11.2250  -13.4650   59.0980 C.ar  122  PHE122     -0.0042
     88  CD2      -10.4320  -14.7470   57.1960 C.ar  122  PHE122     -0.0042
     89  CE1      -11.9310  -14.6020   59.5840 C.ar  122  PHE122     -0.0003
     90  CE2      -11.1290  -15.8950   57.6640 C.ar  122  PHE122     -0.0003
     91  CZ       -11.8800  -15.8200   58.8640 C.ar  122  PHE122     -0.0000
     92  N         -6.7750  -13.5260   57.4830 N.am  123  PHE123     -0.1976
     93  CA        -5.8590  -14.6570   57.4890 C.3   123  PHE123      0.1639
     94  C         -4.6330  -14.3490   58.3320 C.2   123  PHE123      0.2290
     95  O         -4.2160  -15.1780   59.1350 O.2   123  PHE123     -0.2864
     96  CB        -5.4350  -14.9940   56.0590 C.3   123  PHE123      0.0560
     97  CG        -6.3650  -15.9310   55.3670 C.ar  123  PHE123     -0.0200
     98  CD1       -6.0780  -17.3090   55.3090 C.ar  123  PHE123     -0.0042
     99  CD2       -7.5600  -15.4520   54.7990 C.ar  123  PHE123     -0.0042
    100  CE1       -6.9840  -18.2100   54.6880 C.ar  123  PHE123     -0.0003
    101  CE2       -8.4700  -16.3280   54.1820 C.ar  123  PHE123     -0.0003
    102  CZ        -8.1920  -17.7150   54.1210 C.ar  123  PHE123     -0.0000
@<TRIPOS>BOND
     1    40    39    1
     2    31    32    1
     3    32    33    1
     4    32    35    1
     5    45    44    2
     6    37    36    1
     7    37    38    1
     8    33    34    2
     9    33    42   am
    10    44    43    1
    11    36    35    1
    12    39    38    2
    13    39    41    1
    14    42    43    1
    15    43    46    1
    16    25    24    2
    17    46    47    1
    18    24    23    1
    19    23    22    1
    20    23    26    1
    21    47    48   ar
    22    47    49   ar
    23    30    28   ar
    24    48    50   ar
    25    49    51   ar
    26    26    27    1
    27    50    52   ar
    28    27    28    1
    29    28    29   ar
    30    20    19    2
    31    51    52   ar
    32    21    19   am
    33    19    18    1
    34    18    15    1
    35    15    14    1
    36    15    16    1
    37    65    63   am
    38    63    62    1
    39    63    64    2
    40    62    59    1
    41    17    16    2
    42    14     9   am
    43    80    78    1
    44    57    54    1
    45     9    10    2
    46     9     8    1
    47    59    58    1
    48    59    60    1
    49    58    55   am
    50    78    79    1
    51    78    77    2
    52     8     7    1
    53     8    11    1
    54     1     2    1
    55     7     3   am
    56    53    54    1
    57    54    55    1
    58    55    56    2
    59     2     3    1
    60     2     5    1
    61     3     4    2
    62    60    61    2
    63    77    76    1
    64    11    13    1
    65    11    12    1
    66     5     6    1
    67    76    75    1
    68    74    75    1
    69    74    71    1
    70    67    66    1
    71    67    68    1
    72    70    68   am
    73    70    71    1
    74    68    69    2
    75    71    72    1
    76   102   101   ar
    77   102   100   ar
    78   101    99   ar
    79   100    98   ar
    80    99    97   ar
    81    98    97   ar
    82    97    96    1
    83    72    73    2
    84    96    93    1
    85    88    90   ar
    86    88    86   ar
    87    85    86    1
    88    85    82    1
    89    92    93    1
    90    92    83   am
    91    93    94    1
    92    81    82    1
    93    90    91   ar
    94    86    87   ar
    95    82    83    1
    96    94    95    2
    97    83    84    2
    98    91    89   ar
    99    87    89   ar
