@<TRIPOS>MOLECULE
tmp/1oonB02.pdb
 84 78 0 0 0
SMALL
GASTEIGER

@<TRIPOS>ATOM
      1  N         -4.4700  -17.9860   39.9900 N.3    11  SER11      -0.1217
      2  CA        -5.2970  -18.6690   40.9630 C.3    11  SER11       0.1889
      3  C         -6.7200  -18.4850   40.4420 C.2    11  SER11       0.2288
      4  O         -7.2880  -17.3840   40.4970 O.2    11  SER11      -0.2866
      5  CB        -5.1180  -18.0530   42.3460 C.3    11  SER11       0.2089
      6  OG        -4.1270  -18.7640   43.0630 O.3    11  SER11      -0.2183
      7  N        -10.5510  -18.4750   40.1250 N.3    13  LYS13      -0.1245
      8  CA       -11.6670  -18.2140   41.0380 C.3    13  LYS13       0.1561
      9  C        -12.9650  -18.9480   40.7010 C.2    13  LYS13       0.2260
     10  O        -13.8690  -19.0050   41.5400 O.2    13  LYS13      -0.2867
     11  CB       -11.9430  -16.7050   41.1390 C.3    13  LYS13       0.0271
     12  CG       -10.7630  -15.8550   41.6090 C.3    13  LYS13       0.0035
     13  CD       -10.3290  -16.1820   43.0360 C.3    13  LYS13       0.0206
     14  CE        -8.8920  -15.7420   43.2730 C.3    13  LYS13       0.1093
     15  NZ        -8.4530  -16.0220   44.6570 N.3    13  LYS13      -0.1314
     16  N        -16.1900  -19.8590   55.1470 N.3    67  TYR67      -0.1241
     17  CA       -15.3940  -19.9830   53.9220 C.3    67  TYR67       0.1605
     18  C        -16.2490  -20.3510   52.6960 C.2    67  TYR67       0.2264
     19  O        -15.7620  -21.0080   51.7650 O.2    67  TYR67      -0.2867
     20  CB       -14.2760  -21.0240   54.1160 C.3    67  TYR67       0.0534
     21  CG       -13.3590  -20.7920   55.2960 C.ar   67  TYR67      -0.0201
     22  CD1      -13.4720  -21.5770   56.4670 C.ar   67  TYR67      -0.0009
     23  CD2      -12.3440  -19.8100   55.2450 C.ar   67  TYR67      -0.0009
     24  CE1      -12.5860  -21.3910   57.5670 C.ar   67  TYR67       0.0417
     25  CE2      -11.4430  -19.6150   56.3420 C.ar   67  TYR67       0.0417
     26  CZ       -11.5760  -20.4080   57.4870 C.ar   67  TYR67       0.1957
     27  OH       -10.7070  -20.2250   58.5360 O.3    67  TYR67      -0.2866
     28  N        -17.2150  -18.6990   50.0290 N.3    69  PHE69      -0.1227
     29  CA       -16.7070  -18.2430   48.7270 C.3    69  PHE69       0.1736
     30  C        -15.7110  -19.2130   48.0680 C.2    69  PHE69       0.2595
     31  O        -15.3000  -19.0060   46.9210 O.2    69  PHE69      -0.2718
     32  CB       -16.0750  -16.8380   48.8320 C.3    69  PHE69       0.0547
     33  CG       -15.4870  -16.5080   50.1890 C.ar   69  PHE69      -0.0202
     34  CD1      -14.4040  -17.2450   50.7130 C.ar   69  PHE69      -0.0042
     35  CD2      -16.0150  -15.4470   50.9470 C.ar   69  PHE69      -0.0042
     36  CE1      -13.8530  -16.9330   51.9790 C.ar   69  PHE69      -0.0003
     37  CE2      -15.4740  -15.1150   52.2220 C.ar   69  PHE69      -0.0003
     38  CZ       -14.3890  -15.8650   52.7380 C.ar   69  PHE69      -0.0000
     39  N        -15.3400  -20.2610   48.8090 N.am   70  ASN70      -0.1974
     40  CA       -14.4040  -21.2920   48.3530 C.3    70  ASN70       0.1688
     41  C        -15.1140  -22.5950   47.9930 C.2    70  ASN70       0.2292
     42  O        -14.5020  -23.4880   47.4120 O.2    70  ASN70      -0.2864
     43  CB       -13.3570  -21.5910   49.4400 C.3    70  ASN70       0.1181
     44  CG       -12.2400  -20.5610   49.4890 C.2    70  ASN70       0.2629
     45  OD1      -11.8180  -20.0280   48.4590 O.2    70  ASN70      -0.2716
     46  ND2      -11.7400  -20.2890   50.6920 N.am   70  ASN70      -0.0877
     47  N        -15.5480  -23.6070   43.9840 N.3    73  LYS73      -0.1245
     48  CA       -14.2920  -24.0120   43.3510 C.3    73  LYS73       0.1561
     49  C        -14.0610  -25.5140   43.5180 C.2    73  LYS73       0.2260
     50  O        -13.6830  -26.2000   42.5630 O.2    73  LYS73      -0.2867
     51  CB       -13.1130  -23.2570   43.9700 C.3    73  LYS73       0.0271
     52  CG       -12.9650  -21.8210   43.5250 C.3    73  LYS73       0.0035
     53  CD       -12.0110  -21.0600   44.4400 C.3    73  LYS73       0.0206
     54  CE       -12.5840  -19.7120   44.8370 C.3    73  LYS73       0.1093
     55  NZ       -11.7890  -19.0500   45.9060 N.3    73  LYS73      -0.1314
     56  N         -6.3510  -22.5000   51.3920 N.3   164  GLU164     -0.1231
     57  CA        -5.9500  -22.6020   52.7960 C.3   164  GLU164      0.1699
     58  C         -7.2040  -22.1710   53.5670 C.2   164  GLU164      0.2592
     59  O         -7.2930  -22.3160   54.7940 O.2   164  GLU164     -0.2718
     60  CB        -4.8200  -21.6250   53.1150 C.3   164  GLU164      0.0402
     61  CG        -3.5890  -22.2520   53.7570 C.3   164  GLU164      0.1161
     62  CD        -2.4500  -21.2540   53.9510 C.2   164  GLU164      0.3649
     63  OE1       -2.7030  -20.1410   54.4540 O.co2 164  GLU164     -0.2457
     64  OE2       -1.2970  -21.5790   53.6050 O.co2 164  GLU164     -0.2457
     65  N         -8.1740  -21.6610   52.8020 N.am  165  GLY165     -0.1957
     66  CA        -9.4350  -21.1900   53.3350 C.3   165  GLY165      0.1869
     67  C        -10.4850  -22.2610   53.4880 C.2   165  GLY165      0.2309
     68  O        -11.4580  -22.2980   52.7340 O.2   165  GLY165     -0.2863
     69  N         -9.9840  -13.2340   37.4810 N.3   199  ASN199     -0.1240
     70  CA        -8.5530  -13.2950   37.8010 C.3   199  ASN199      0.1653
     71  C         -7.6820  -13.6330   36.5880 C.2   199  ASN199      0.2266
     72  O         -6.4710  -13.3990   36.6130 O.2   199  ASN199     -0.2867
     73  CB        -8.2820  -14.3090   38.9200 C.3   199  ASN199      0.1155
     74  CG        -7.2500  -13.8130   39.9200 C.2   199  ASN199      0.2627
     75  OD1       -7.5790  -13.0840   40.8560 O.2   199  ASN199     -0.2716
     76  ND2       -5.9950  -14.2030   39.7230 N.am  199  ASN199     -0.0877
     77  N         -6.9810  -10.1870   34.7780 N.3   202  LEU202     -0.1245
     78  CA        -6.2270   -9.3220   35.6840 C.3   202  LEU202      0.1561
     79  C         -4.7140   -9.6030   35.6300 C.2   202  LEU202      0.2260
     80  O         -4.3100  -10.7550   35.4420 O.2   202  LEU202     -0.2867
     81  CB        -6.7470   -9.5380   37.1130 C.3   202  LEU202      0.0270
     82  CG        -7.9110   -8.6850   37.6320 C.3   202  LEU202      0.0019
     83  CD1       -9.2140   -8.9910   36.8970 C.3   202  LEU202      0.0001
     84  CD2       -8.0720   -8.9480   39.1210 C.3   202  LEU202      0.0001
@<TRIPOS>BOND
     1    77    78    1
     2    80    79    2
     3    79    78    1
     4    78    81    1
     5    71    72    2
     6    71    70    1
     7    83    82    1
     8    81    82    1
     9    69    70    1
    10    82    84    1
    11    70    73    1
    12    73    74    1
    13    76    74   am
    14    74    75    2
    15     1     2    1
    16     7     8    1
    17     3     4    2
    18     3     2    1
    19     9     8    1
    20     9    10    2
    21     2     5    1
    22     8    11    1
    23    11    12    1
    24    12    13    1
    25     5     6    1
    26    50    49    2
    27    13    14    1
    28    14    15    1
    29    48    49    1
    30    48    51    1
    31    48    47    1
    32    52    51    1
    33    52    53    1
    34    53    54    1
    35    54    55    1
    36    31    30    2
    37    42    41    2
    38    41    40    1
    39    30    29    1
    40    30    39   am
    41    40    39    1
    42    40    43    1
    43    45    44    2
    44    29    32    1
    45    29    28    1
    46    32    33    1
    47    43    44    1
    48    44    46   am
    49    33    34   ar
    50    33    35   ar
    51    34    36   ar
    52    35    37   ar
    53    56    57    1
    54    19    18    2
    55    36    38   ar
    56    37    38   ar
    57    18    17    1
    58    68    67    2
    59    57    60    1
    60    57    58    1
    61    65    66    1
    62    65    58   am
    63    60    61    1
    64    66    67    1
    65    58    59    2
    66    64    62   ar
    67    61    62    1
    68    17    20    1
    69    17    16    1
    70    62    63   ar
    71    20    21    1
    72    23    21   ar
    73    23    25   ar
    74    21    22   ar
    75    25    26   ar
    76    22    24   ar
    77    26    24   ar
    78    26    27    1
