@<TRIPOS>MOLECULE
tmp/1oopA00.pdb
 225 213 0 0 0
SMALL
GASTEIGER

@<TRIPOS>ATOM
      1  N        130.7380  -43.1550   -0.3310 N.3    82  ILE82      -0.1231
      2  CA       129.7220  -42.9350   -1.3290 C.3    82  ILE82       0.1692
      3  C        129.9520  -41.7190   -2.2010 C.2    82  ILE82       0.2592
      4  O        130.1940  -40.6000   -1.6980 O.2    82  ILE82      -0.2718
      5  CB       128.3440  -42.7970   -0.7120 C.3    82  ILE82       0.0266
      6  CG1      128.0730  -43.9240    0.2570 C.3    82  ILE82       0.0019
      7  CG2      127.3200  -42.8810   -1.7840 C.3    82  ILE82       0.0020
      8  CD1      127.0850  -43.5470    1.3020 C.3    82  ILE82       0.0001
      9  N        129.8360  -41.9770   -3.5080 N.am   83  ASN83      -0.1960
     10  CA       129.9530  -40.9770   -4.5640 C.3    83  ASN83       0.1819
     11  C        129.5080  -41.5990   -5.8900 C.2    83  ASN83       0.2622
     12  O        129.6070  -42.8060   -6.0960 O.2    83  ASN83      -0.2715
     13  CB       131.3710  -40.4100   -4.6420 C.3    83  ASN83       0.1195
     14  CG       132.2120  -41.0610   -5.6990 C.2    83  ASN83       0.2630
     15  OD1      132.6550  -42.1710   -5.5270 O.2    83  ASN83      -0.2716
     16  ND2      132.4500  -40.3570   -6.7960 N.am   83  ASN83      -0.0877
     17  N        128.9860  -40.7880   -6.7870 N.am   84  THR84      -0.1937
     18  CA       128.5190  -41.3510   -8.0500 C.3    84  THR84       0.2028
     19  C        129.4670  -41.0990   -9.2170 C.2    84  THR84       0.2642
     20  O        129.0850  -41.2630  -10.3720 O.2    84  THR84      -0.2714
     21  CB       127.1560  -40.7300   -8.4280 C.3    84  THR84       0.1808
     22  OG1      127.2890  -39.2980   -8.4840 O.3    84  THR84      -0.2208
     23  CG2      126.0830  -41.1180   -7.4120 C.3    84  THR84       0.0379
     24  N        130.6980  -40.7000   -8.9380 N.am   85  ARG85      -0.1977
     25  CA       131.6070  -40.3730  -10.0240 C.3    85  ARG85       0.1597
     26  C        132.6610  -41.4020  -10.4050 C.2    85  ARG85       0.2287
     27  O        133.4950  -41.1500  -11.2640 O.2    85  ARG85      -0.2864
     28  CB       132.2690  -39.0320   -9.7470 C.3    85  ARG85       0.0334
     29  CG       131.3730  -37.8820   -9.9660 C.3    85  ARG85       0.0492
     30  CD       132.0070  -36.6000   -9.5080 C.3    85  ARG85       0.2205
     31  NE       131.6270  -36.2430   -8.1480 N.pl3  85  ARG85      -0.0865
     32  CZ       132.3970  -36.4500   -7.0830 C.cat  85  ARG85       0.5346
     33  NH1      133.5880  -37.0190   -7.2110 N.pl3  85  ARG85       0.1354
     34  NH2      132.0030  -36.0440   -5.8800 N.pl3  85  ARG85       0.1354
     35  N        123.6660  -38.3990  -15.0740 N.3    94  LEU94      -0.1245
     36  CA       123.3640  -37.3600  -14.0990 C.3    94  LEU94       0.1561
     37  C        123.9670  -36.0810  -14.5640 C.2    94  LEU94       0.2260
     38  O        123.3540  -35.0330  -14.4830 O.2    94  LEU94      -0.2867
     39  CB       123.9720  -37.6840  -12.7510 C.3    94  LEU94       0.0270
     40  CG       123.2530  -38.8740  -12.1650 C.3    94  LEU94       0.0019
     41  CD1      124.0310  -39.5160  -11.0730 C.3    94  LEU94       0.0001
     42  CD2      121.9240  -38.3770  -11.6810 C.3    94  LEU94       0.0001
     43  N        116.4560  -35.9900   -6.1130 N.3   102  PHE102     -0.1241
     44  CA       115.8550  -37.2940   -6.3020 C.3   102  PHE102      0.1605
     45  C        116.0290  -38.1840   -5.1210 C.2   102  PHE102      0.2264
     46  O        116.8140  -37.8730   -4.2210 O.2   102  PHE102     -0.2867
     47  CB       116.4020  -38.0020   -7.5580 C.3   102  PHE102      0.0534
     48  CG       117.9020  -38.1070   -7.6140 C.ar  102  PHE102     -0.0203
     49  CD1      118.5790  -39.0480   -6.8640 C.ar  102  PHE102     -0.0042
     50  CD2      118.6440  -37.2210   -8.3800 C.ar  102  PHE102     -0.0042
     51  CE1      119.9660  -39.0960   -6.8620 C.ar  102  PHE102     -0.0003
     52  CE2      120.0320  -37.2660   -8.3780 C.ar  102  PHE102     -0.0003
     53  CZ       120.6850  -38.2080   -7.6120 C.ar  102  PHE102     -0.0000
     54  N        116.5050  -42.3420   -3.8490 N.3   104  LEU104     -0.1245
     55  CA       117.3110  -43.4310   -4.3720 C.3   104  LEU104      0.1561
     56  C        116.8400  -44.7470   -3.9250 C.2   104  LEU104      0.2260
     57  O        116.3910  -44.8950   -2.7960 O.2   104  LEU104     -0.2867
     58  CB       118.7370  -43.3500   -3.8780 C.3   104  LEU104      0.0270
     59  CG       119.7750  -42.7170   -4.7740 C.3   104  LEU104      0.0019
     60  CD1      121.0790  -42.8050   -4.0470 C.3   104  LEU104      0.0001
     61  CD2      119.8300  -43.4160   -6.1120 C.3   104  LEU104      0.0001
     62  N        118.5100  -48.2810   -3.4490 N.3   106  LEU106     -0.1245
     63  CA       119.7420  -49.0420   -3.4360 C.3   106  LEU106      0.1561
     64  C        119.4490  -50.5070   -3.4830 C.2   106  LEU106      0.2260
     65  O        118.6200  -51.0070   -2.7360 O.2   106  LEU106     -0.2867
     66  CB       120.5170  -48.8190   -2.1600 C.3   106  LEU106      0.0270
     67  CG       121.5700  -47.7370   -2.1860 C.3   106  LEU106      0.0019
     68  CD1      120.8710  -46.3920   -2.3650 C.3   106  LEU106      0.0001
     69  CD2      122.3270  -47.7540   -0.8690 C.3   106  LEU106      0.0001
     70  N        121.7600  -54.2260   -3.7340 N.3   108  PHE108     -0.1241
     71  CA       123.0740  -54.7910   -3.5960 C.3   108  PHE108      0.1605
     72  C        123.1170  -56.1870   -4.1270 C.2   108  PHE108      0.2264
     73  O        122.2770  -57.0210   -3.7630 O.2   108  PHE108     -0.2867
     74  CB       123.3970  -54.9060   -2.1250 C.3   108  PHE108      0.0534
     75  CG       123.5680  -53.6100   -1.4550 C.ar  108  PHE108     -0.0203
     76  CD1      124.7490  -52.8980   -1.6010 C.ar  108  PHE108     -0.0042
     77  CD2      122.5690  -53.1040   -0.6350 C.ar  108  PHE108     -0.0042
     78  CE1      124.9430  -51.6990   -0.9350 C.ar  108  PHE108     -0.0003
     79  CE2      122.7500  -51.9010    0.0380 C.ar  108  PHE108     -0.0003
     80  CZ       123.9430  -51.1980   -0.1120 C.ar  108  PHE108     -0.0000
     81  N        125.9250  -54.7130    6.1400 N.3   131  ILE131     -0.1245
     82  CA       126.3670  -53.4890    5.4840 C.3   131  ILE131      0.1561
     83  C        125.9230  -52.3960    6.3990 C.2   131  ILE131      0.2260
     84  O        124.7770  -52.3830    6.8540 O.2   131  ILE131     -0.2867
     85  CB       125.6830  -53.2980    4.1710 C.3   131  ILE131      0.0252
     86  CG1      125.9710  -54.5040    3.2880 C.3   131  ILE131      0.0019
     87  CG2      126.1330  -52.0070    3.5430 C.3   131  ILE131      0.0019
     88  CD1      125.3270  -54.4110    1.9760 C.3   131  ILE131      0.0001
     89  N        125.8280  -48.1670    7.1990 N.3   133  TYR133     -0.1241
     90  CA       126.0500  -46.8570    6.6470 C.3   133  TYR133      0.1605
     91  C        126.4710  -45.9540    7.7890 C.2   133  TYR133      0.2264
     92  O        125.8320  -45.9170    8.8390 O.2   133  TYR133     -0.2867
     93  CB       124.7970  -46.3710    5.9530 C.3   133  TYR133      0.0534
     94  CG       124.8740  -44.9320    5.6170 C.ar  133  TYR133     -0.0201
     95  CD1      125.6280  -44.4970    4.5430 C.ar  133  TYR133     -0.0009
     96  CD2      124.1870  -43.9900    6.3650 C.ar  133  TYR133     -0.0009
     97  CE1      125.6970  -43.1610    4.2110 C.ar  133  TYR133      0.0417
     98  CE2      124.2430  -42.6500    6.0490 C.ar  133  TYR133      0.0417
     99  CZ       125.0010  -42.2410    4.9660 C.ar  133  TYR133      0.1957
    100  OH       125.0710  -40.9140    4.6130 O.3   133  TYR133     -0.2866
    101  N        122.0820  -47.0860   10.2990 N.3   155  PRO155     -0.2102
    102  CA       121.2560  -48.1610    9.7480 C.3   155  PRO155      0.1504
    103  C        122.1730  -49.2090    9.1370 C.2   155  PRO155      0.2576
    104  O        123.2360  -48.8700    8.6300 O.2   155  PRO155     -0.2718
    105  CB       120.4550  -47.4440    8.6730 C.3   155  PRO155      0.0282
    106  CG       121.3920  -46.3520    8.2370 C.3   155  PRO155      0.0208
    107  CD       121.9050  -45.8400    9.5440 C.3   155  PRO155      0.0893
    108  N        121.7510  -50.4650    9.1250 N.am  156  SER156     -0.1938
    109  CA       122.5530  -51.5590    8.5560 C.3   156  SER156      0.2055
    110  C        121.6130  -52.5820    8.0100 C.2   156  SER156      0.2642
    111  O        120.4720  -52.6730    8.4390 O.2   156  SER156     -0.2714
    112  CB       123.3570  -52.3220    9.6220 C.3   156  SER156      0.2130
    113  OG       124.2860  -51.5240   10.3190 O.3   156  SER156     -0.2179
    114  N        122.1060  -53.3930    7.0990 N.am  157  VAL157     -0.1977
    115  CA       121.2890  -54.4620    6.5880 C.3   157  VAL157      0.1596
    116  C        122.0720  -55.7280    6.8350 C.2   157  VAL157      0.2287
    117  O        123.3040  -55.7630    6.6590 O.2   157  VAL157     -0.2864
    118  CB       121.1190  -54.4710    5.0820 C.3   157  VAL157      0.0276
    119  CG1      119.7580  -54.9520    4.7490 C.3   157  VAL157      0.0022
    120  CG2      121.4460  -53.1610    4.4660 C.3   157  VAL157      0.0022
    121  N        116.8460  -50.8710   -0.3770 N.3   168  MET168     -0.1245
    122  CA       116.2850  -49.8320    0.4810 C.3   168  MET168      0.1570
    123  C        116.0510  -48.6210   -0.3300 C.2   168  MET168      0.2261
    124  O        116.5730  -48.5050   -1.4330 O.2   168  MET168     -0.2867
    125  CB       117.2510  -49.3760    1.5490 C.3   168  MET168      0.0387
    126  CG       117.7570  -50.4700    2.3930 C.3   168  MET168      0.0595
    127  SD       119.2690  -50.9690    1.7410 S.3   168  MET168     -0.1393
    128  CE       120.0520  -49.6960    2.4070 C.3   168  MET168      0.0692
    129  N        116.1900  -44.3610   -0.0010 N.3   170  VAL170     -0.1245
    130  CA       116.8270  -43.2940    0.7430 C.3   170  VAL170      0.1561
    131  C        116.2550  -42.0530    0.1100 C.2   170  VAL170      0.2260
    132  O        116.1040  -42.0200   -1.1190 O.2   170  VAL170     -0.2867
    133  CB       118.3580  -43.3920    0.4760 C.3   170  VAL170      0.0252
    134  CG1      119.0320  -42.0720    0.6340 C.3   170  VAL170      0.0019
    135  CG2      118.9770  -44.4540    1.4080 C.3   170  VAL170      0.0019
    136  N        118.7770  -36.7040    0.5540 N.3   173  ILE173     -0.1245
    137  CA       119.4630  -36.3530    1.7800 C.3   173  ILE173      0.1561
    138  C        120.3400  -35.1200    1.6780 C.2   173  ILE173      0.2260
    139  O        121.0090  -34.7760    2.6420 O.2   173  ILE173     -0.2867
    140  CB       120.2440  -37.5680    2.3410 C.3   173  ILE173      0.0252
    141  CG1      121.2300  -38.1150    1.3120 C.3   173  ILE173      0.0019
    142  CG2      119.2870  -38.7020    2.6250 C.3   173  ILE173      0.0019
    143  CD1      122.6490  -37.6120    1.4990 C.3   173  ILE173      0.0001
    144  N        119.1490  -28.8980   -3.7420 N.3   178  ALA178     -0.1231
    145  CA       119.3410  -29.8970   -4.7920 C.3   178  ALA178      0.1694
    146  C        120.7650  -30.4140   -4.7400 C.2   178  ALA178      0.2592
    147  O        121.6080  -29.8680   -4.0250 O.2   178  ALA178     -0.2718
    148  CB       119.0800  -29.2920   -6.1400 C.3   178  ALA178      0.0304
    149  N        121.0050  -31.5430   -5.3900 N.am  179  TYR179     -0.1962
    150  CA       122.3480  -32.0880   -5.4570 C.3   179  TYR179      0.1771
    151  C        122.9040  -31.3060   -6.6270 C.2   179  TYR179      0.2620
    152  O        122.1860  -31.0290   -7.5940 O.2   179  TYR179     -0.2715
    153  CB       122.3530  -33.5590   -5.8230 C.3   179  TYR179      0.0574
    154  CG       121.7880  -34.5100   -4.7950 C.ar  179  TYR179     -0.0198
    155  CD1      122.1560  -34.4310   -3.4590 C.ar  179  TYR179     -0.0009
    156  CD2      120.9540  -35.5510   -5.1950 C.ar  179  TYR179     -0.0009
    157  CE1      121.7110  -35.3790   -2.5430 C.ar  179  TYR179      0.0417
    158  CE2      120.5000  -36.4920   -4.3030 C.ar  179  TYR179      0.0417
    159  CZ       120.8780  -36.4180   -2.9700 C.ar  179  TYR179      0.1957
    160  OH       120.3980  -37.3780   -2.0820 O.3   179  TYR179     -0.2866
    161  N        124.1530  -30.8830   -6.4950 N.am  180  SER180     -0.1936
    162  CA       124.8700  -30.1110   -7.5020 C.3   180  SER180      0.2055
    163  C        125.7480  -31.1400   -8.2280 C.2   180  SER180      0.2642
    164  O        126.3560  -31.9950   -7.5790 O.2   180  SER180     -0.2714
    165  CB       125.7710  -29.1350   -6.7460 C.3   180  SER180      0.2130
    166  OG       125.5780  -27.7650   -7.0710 O.3   180  SER180     -0.2179
    167  N        125.7270  -31.1730   -9.5510 N.am  181  MET181     -0.1976
    168  CA       126.6060  -32.1060  -10.2730 C.3   181  MET181      0.1605
    169  C        127.9080  -31.3840  -10.6440 C.2   181  MET181      0.2287
    170  O        128.8960  -32.0020  -11.0560 O.2   181  MET181     -0.2864
    171  CB       125.9820  -32.5740  -11.5740 C.3   181  MET181      0.0413
    172  CG       124.5610  -33.0070  -11.4850 C.3   181  MET181      0.0598
    173  SD       124.4730  -34.4180  -10.5150 S.3   181  MET181     -0.1393
    174  CE       123.1630  -33.9790   -9.5820 C.3   181  MET181      0.0692
    175  N        133.7370  -29.9960   -7.9980 N.3   197  ILE197     -0.1245
    176  CA       132.6940  -30.8170   -7.4320 C.3   197  ILE197      0.1561
    177  C        132.9840  -31.5490   -6.1260 C.2   197  ILE197      0.2260
    178  O        132.0730  -31.7960   -5.3380 O.2   197  ILE197     -0.2867
    179  CB       132.2050  -31.8220   -8.4620 C.3   197  ILE197      0.0252
    180  CG1      130.8160  -32.3230   -8.0600 C.3   197  ILE197      0.0019
    181  CG2      133.2290  -32.9330   -8.6320 C.3   197  ILE197      0.0019
    182  CD1      129.8980  -31.1830   -7.6240 C.3   197  ILE197      0.0001
    183  N        131.7840  -30.3550   -2.4200 N.3   200  LEU200     -0.1231
    184  CA       130.4460  -30.6510   -1.9450 C.3   200  LEU200      0.1693
    185  C        130.2360  -32.0470   -1.4300 C.2   200  LEU200      0.2592
    186  O        129.3660  -32.2750   -0.5990 O.2   200  LEU200     -0.2718
    187  CB       129.4610  -30.4440   -3.0670 C.3   200  LEU200      0.0284
    188  CG       129.4730  -29.0150   -3.5120 C.3   200  LEU200      0.0019
    189  CD1      128.4890  -28.8420   -4.6080 C.3   200  LEU200      0.0001
    190  CD2      129.1790  -28.1630   -2.3510 C.3   200  LEU200      0.0001
    191  N        130.9810  -32.9850   -1.9870 N.am  201  ASN201     -0.1974
    192  CA       130.8830  -34.3970   -1.6430 C.3   201  ASN201      0.1688
    193  C        131.1110  -34.8340   -0.1840 C.2   201  ASN201      0.2292
    194  O        132.2460  -35.0090    0.2310 O.2   201  ASN201     -0.2864
    195  CB       131.8050  -35.1980   -2.5820 C.3   201  ASN201      0.1181
    196  CG       131.7260  -36.7220   -2.3570 C.2   201  ASN201      0.2629
    197  OD1      132.7600  -37.3940   -2.3000 O.2   201  ASN201     -0.2716
    198  ND2      130.5030  -37.2720   -2.2560 N.am  201  ASN201     -0.0877
    199  N        128.7250  -37.4930    1.6880 N.3   203  MET203     -0.1245
    200  CA       127.5690  -38.3370    1.8870 C.3   203  MET203      0.1570
    201  C        127.8040  -39.5550    2.7360 C.2   203  MET203      0.2261
    202  O        126.9970  -40.4860    2.7130 O.2   203  MET203     -0.2867
    203  CB       127.0430  -38.8210    0.5510 C.3   203  MET203      0.0387
    204  CG       127.1720  -37.8320   -0.5730 C.3   203  MET203      0.0595
    205  SD       126.0120  -36.5590   -0.3310 S.3   203  MET203     -0.1393
    206  CE       126.8770  -35.1240   -1.0170 C.3   203  MET203      0.0692
    207  N        130.0510  -46.4700    3.3930 N.3   206  LEU206     -0.1245
    208  CA       129.4000  -47.7450    3.5840 C.3   206  LEU206      0.1561
    209  C        130.4980  -48.6690    4.0980 C.2   206  LEU206      0.2260
    210  O        131.6480  -48.5350    3.6880 O.2   206  LEU206     -0.2867
    211  CB       128.9020  -48.2650    2.2400 C.3   206  LEU206      0.0270
    212  CG       127.4080  -48.3530    2.0050 C.3   206  LEU206      0.0019
    213  CD1      126.7320  -47.1170    2.4950 C.3   206  LEU206      0.0001
    214  CD2      127.1940  -48.4970    0.5510 C.3   206  LEU206      0.0001
    215  N        122.4990  -47.9830   -7.8690 N.3   227  PHE227     -0.1241
    216  CA       121.7600  -46.7770   -7.5730 C.3   227  PHE227      0.1605
    217  C        120.6560  -46.6220   -8.5820 C.2   227  PHE227      0.2264
    218  O        120.8410  -46.8740   -9.7800 O.2   227  PHE227     -0.2867
    219  CB       122.6210  -45.5370   -7.6910 C.3   227  PHE227      0.0534
    220  CG       123.3860  -45.1940   -6.4610 C.ar  227  PHE227     -0.0203
    221  CD1      123.5070  -46.0890   -5.4130 C.ar  227  PHE227     -0.0042
    222  CD2      124.0420  -43.9730   -6.3820 C.ar  227  PHE227     -0.0042
    223  CE1      124.2730  -45.7810   -4.3120 C.ar  227  PHE227     -0.0003
    224  CE2      124.8090  -43.6540   -5.2810 C.ar  227  PHE227     -0.0003
    225  CZ       124.9260  -44.5680   -4.2400 C.ar  227  PHE227     -0.0000
@<TRIPOS>BOND
     1    35    36    1
     2    37    38    2
     3    37    36    1
     4    36    39    1
     5    39    40    1
     6    40    42    1
     7    40    41    1
     8   171   172    1
     9   171   168    1
    10   172   173    1
    11    27    26    2
    12   170   169    2
    13   169   168    1
    14   173   174    1
    15    26    25    1
    16    20    19    2
    17   168   167    1
    18    25    28    1
    19    25    24    1
    20    29    28    1
    21    29    30    1
    22   218   217    2
    23   167   163   am
    24    30    31    1
    25    19    24   am
    26    19    18    1
    27   181   179    1
    28   217   216    1
    29    22    21    1
    30   179   180    1
    31   179   176    1
    32    21    18    1
    33    21    23    1
    34    50    52   ar
    35    50    48   ar
    36    52    53   ar
    37   163   164    2
    38   163   162    1
    39    31    32    2
    40   180   182    1
    41    18    17    1
    42   175   176    1
    43   215   216    1
    44   219   216    1
    45   219   220    1
    46    48    47    1
    47    48    49   ar
    48    53    51   ar
    49   152   151    2
    50    47    44    1
    51   162   165    1
    52   162   161    1
    53   176   177    1
    54    33    32    1
    55    32    34    1
    56   166   165    1
    57    49    51   ar
    58    16    14   am
    59    17    11   am
    60   151   161   am
    61   151   150    1
    62   220   222   ar
    63   220   221   ar
    64   222   224   ar
    65    44    43    1
    66    44    45    1
    67   148   145    1
    68   177   178    2
    69    61    59    1
    70    12    11    2
    71    11    10    1
    72   153   150    1
    73   153   154    1
    74    14    15    2
    75    14    13    1
    76   150   149    1
    77   221   223   ar
    78   149   146   am
    79   224   225   ar
    80   156   154   ar
    81   156   158   ar
    82    45    46    2
    83   154   155   ar
    84   145   146    1
    85   145   144    1
    86    59    60    1
    87    59    58    1
    88   146   147    2
    89    13    10    1
    90   189   188    1
    91    10     9    1
    92    55    56    1
    93    55    58    1
    94    55    54    1
    95   223   225   ar
    96   158   159   ar
    97    72    73    2
    98    72    71    1
    99    56    57    2
   100    70    71    1
   101    71    74    1
   102   188   187    1
   103   188   190    1
   104     9     3   am
   105    64    63    1
   106    64    65    2
   107   155   157   ar
   108    62    63    1
   109    63    66    1
   110   187   184    1
   111   159   157   ar
   112   159   160    1
   113   195   196    1
   114   195   192    1
   115   183   184    1
   116    68    67    1
   117   196   197    2
   118   196   198   am
   119     3     4    2
   120     3     2    1
   121    67    66    1
   122    67    69    1
   123    74    75    1
   124   191   192    1
   125   191   185   am
   126   184   185    1
   127     7     5    1
   128   192   193    1
   129    76    75   ar
   130    76    78   ar
   131    75    77   ar
   132   124   123    2
   133   185   186    2
   134     2     5    1
   135     2     1    1
   136   132   131    2
   137   206   205    1
   138    78    80   ar
   139     5     6    1
   140    77    79   ar
   141   204   205    1
   142   204   203    1
   143   121   122    1
   144   123   122    1
   145   193   194    2
   146    80    79   ar
   147   129   130    1
   148   131   130    1
   149     6     8    1
   150   133   134    1
   151   133   130    1
   152   133   135    1
   153   122   125    1
   154   203   200    1
   155   214   212    1
   156   136   137    1
   157   141   143    1
   158   141   140    1
   159   125   126    1
   160   138   137    1
   161   138   139    2
   162   199   200    1
   163   127   126    1
   164   127   128    1
   165   137   140    1
   166   200   201    1
   167    88    86    1
   168   212   211    1
   169   212   213    1
   170   211   208    1
   171   140   142    1
   172   202   201    2
   173    86    85    1
   174   207   208    1
   175    87    85    1
   176   208   209    1
   177   210   209    2
   178    85    82    1
   179    97    95   ar
   180    97    99   ar
   181   120   118    1
   182    95    94   ar
   183   100    99    1
   184   119   118    1
   185    99    98   ar
   186   118   115    1
   187    82    81    1
   188    82    83    1
   189    94    93    1
   190    94    96   ar
   191    93    90    1
   192    98    96   ar
   193    83    84    2
   194   115   116    1
   195   115   114    1
   196    90    89    1
   197    90    91    1
   198   117   116    2
   199   114   110   am
   200    91    92    2
   201   110   111    2
   202   110   109    1
   203   106   105    1
   204   106   107    1
   205   109   108    1
   206   109   112    1
   207   104   103    2
   208   105   102    1
   209   108   103   am
   210   103   102    1
   211   107   101    1
   212   112   113    1
   213   102   101    1
