@<TRIPOS>MOLECULE
tmp/1op0A00.pdb
 96 93 0 0 0
SMALL
GASTEIGER

@<TRIPOS>ATOM
      1  N         -1.9060   39.6740   22.2690 N.3    20  ASN20      -0.1225
      2  CA        -3.0540   40.3190   21.6520 C.3    20  ASN20       0.1785
      3  C         -2.9090   41.7680   22.1090 C.2    20  ASN20       0.2598
      4  O         -1.9130   42.1130   22.7520 O.2    20  ASN20      -0.2718
      5  CB        -4.3950   39.7080   22.0940 C.3    20  ASN20       0.1169
      6  CG        -4.5580   39.6390   23.5930 C.2    20  ASN20       0.2627
      7  OD1       -3.9760   40.4320   24.3350 O.2    20  ASN20      -0.2716
      8  ND2       -5.3820   38.6900   24.0350 N.am   20  ASN20      -0.0877
      9  N         -3.8730   42.6220   21.7940 N.am   21  THR21      -0.1939
     10  CA        -3.7550   44.0250   22.1770 C.3    21  THR21       0.2028
     11  C         -3.7060   44.3140   23.6770 C.2    21  THR21       0.2643
     12  O         -3.4060   45.4400   24.0810 O.2    21  THR21      -0.2714
     13  CB        -4.8700   44.8650   21.5380 C.3    21  THR21       0.1808
     14  OG1       -6.1340   44.2180   21.7320 O.3    21  THR21      -0.2208
     15  CG2       -4.6020   45.0350   20.0500 C.3    21  THR21       0.0379
     16  N         -3.9870   43.3130   24.5040 N.am   22  THR22      -0.1936
     17  CA        -3.9320   43.5120   25.9470 C.3    22  THR22       0.2028
     18  C         -2.5230   43.2170   26.4500 C.2    22  THR22       0.2642
     19  O         -2.0810   43.7870   27.4450 O.2    22  THR22      -0.2714
     20  CB        -4.9180   42.5970   26.6970 C.3    22  THR22       0.1808
     21  OG1       -6.2550   42.8750   26.2650 O.3    22  THR22      -0.2208
     22  CG2       -4.8270   42.8420   28.1970 C.3    22  THR22       0.0379
     23  N         -1.8220   42.3260   25.7550 N.am   23  GLY23      -0.1954
     24  CA        -0.4670   41.9790   26.1470 C.3    23  GLY23       0.1869
     25  C         -0.0970   40.5290   25.8720 C.2    23  GLY23       0.2309
     26  O         -0.8610   39.7860   25.2470 O.2    23  GLY23      -0.2863
     27  N          0.4630   36.6530   26.5890 N.3    25  PHE25      -0.1227
     28  CA        -0.3270   35.7370   27.4090 C.3    25  PHE25       0.1736
     29  C          0.1710   34.2920   27.3430 C.2    25  PHE25       0.2595
     30  O         -0.2830   33.4390   28.1060 O.2    25  PHE25      -0.2718
     31  CB        -1.8170   35.8150   27.0280 C.3    25  PHE25       0.0547
     32  CG        -2.1140   35.3950   25.6210 C.ar   25  PHE25      -0.0202
     33  CD1       -2.2140   34.0490   25.2890 C.ar   25  PHE25      -0.0042
     34  CD2       -2.2780   36.3460   24.6180 C.ar   25  PHE25      -0.0042
     35  CE1       -2.4740   33.6540   23.9760 C.ar   25  PHE25      -0.0003
     36  CE2       -2.5360   35.9620   23.2990 C.ar   25  PHE25      -0.0003
     37  CZ        -2.6340   34.6140   22.9800 C.ar   25  PHE25      -0.0000
     38  N          1.1180   34.0230   26.4480 N.am   26  CYS26      -0.1970
     39  CA         1.6680   32.6820   26.3070 C.3    26  CYS26       0.1712
     40  C          2.9980   32.6760   25.5820 C.2    26  CYS26       0.2296
     41  O          3.3840   33.6580   24.9460 O.2    26  CYS26      -0.2864
     42  CB         0.7060   31.7860   25.5240 C.3    26  CYS26       0.0983
     43  SG        -0.5360   30.8880   26.4990 S.3    26  CYS26      -0.0798
     44  N         -4.0880   24.9720   25.1640 N.3    41  HIS41      -0.1226
     45  CA        -4.9030   25.8990   25.9380 C.3    41  HIS41       0.1752
     46  C         -4.4990   27.3660   25.7670 C.2    41  HIS41       0.2596
     47  O         -5.0960   28.2490   26.3810 O.2    41  HIS41      -0.2718
     48  CB        -4.9410   25.5030   27.4220 C.3    41  HIS41       0.0759
     49  CG        -3.7360   25.9170   28.2070 C.ar   41  HIS41       0.0818
     50  ND1       -2.6710   25.0740   28.4380 N.ar   41  HIS41      -0.2268
     51  CD2       -3.4450   27.0770   28.8440 C.ar   41  HIS41       0.1154
     52  CE1       -1.7750   25.6950   29.1860 C.ar   41  HIS41       0.1986
     53  NE2       -2.2210   26.9120   29.4470 N.ar   41  HIS41      -0.2212
     54  N         -3.4980   27.6170   24.9240 N.am   42  CYS42      -0.1956
     55  CA        -3.0390   28.9780   24.6340 C.3    42  CYS42       0.1843
     56  C         -3.7730   29.5140   23.4040 C.2    42  CYS42       0.2625
     57  O         -3.5660   30.6570   22.9910 O.2    42  CYS42      -0.2714
     58  CB        -1.5390   29.0060   24.3300 C.3    42  CYS42       0.0997
     59  SG        -0.4160   29.0010   25.7580 S.3    42  CYS42      -0.0797
     60  N         -4.6160   28.6790   22.8070 N.am   43  ASP43      -0.1957
     61  CA        -5.3540   29.0870   21.6210 C.3    43  ASP43       0.1840
     62  C         -6.3880   30.1640   21.9340 C.2    43  ASP43       0.2622
     63  O         -6.9840   30.1750   23.0100 O.2    43  ASP43      -0.2715
     64  CB        -6.0400   27.8720   20.9940 C.3    43  ASP43       0.1450
     65  CG        -6.7080   28.1930   19.6660 C.2    43  ASP43       0.3671
     66  OD1       -6.0810   28.8690   18.8140 O.co2  43  ASP43      -0.2456
     67  OD2       -7.8600   27.7560   19.4710 O.co2  43  ASP43      -0.2456
     68  N         -6.5740   31.0830   20.9940 N.am   44  SER44      -0.1950
     69  CA        -7.5600   32.1530   21.1360 C.3    44  SER44       0.1924
     70  C         -7.9920   32.5460   19.7270 C.2    44  SER44       0.2314
     71  O         -7.3210   32.2010   18.7490 O.2    44  SER44      -0.2863
     72  CB        -6.9740   33.3630   21.8700 C.3    44  SER44       0.2116
     73  OG        -6.0580   34.0660   21.0550 O.3    44  SER44      -0.2180
     74  N         -8.1690   35.5940   18.3960 N.3    46  ASP46      -0.1239
     75  CA        -7.3530   36.6480   17.8140 C.3    46  ASP46       0.1674
     76  C         -6.0560   36.8720   18.5760 C.2    46  ASP46       0.2266
     77  O         -6.0720   37.3240   19.7200 O.2    46  ASP46      -0.2867
     78  CB        -8.1400   37.9570   17.7660 C.3    46  ASP46       0.1410
     79  CG        -7.3600   39.0750   17.1050 C.2    46  ASP46       0.3668
     80  OD1       -6.2940   39.4710   17.5810 O.co2  46  ASP46      -0.2456
     81  OD2       -7.8830   39.5850   15.9980 O.co2  46  ASP46      -0.2456
     82  N          0.6790   38.6610   41.0380 N.3   131  GLU131     -0.1245
     83  CA         1.1060   38.5620   39.6490 C.3   131  GLU131      0.1567
     84  C          2.0000   39.7260   39.2450 C.2   131  GLU131      0.2260
     85  O          1.5390   40.8610   39.1040 O.2   131  GLU131     -0.2867
     86  CB        -0.1030   38.4950   38.7130 C.3   131  GLU131      0.0388
     87  CG        -0.9220   37.2250   38.8470 C.3   131  GLU131      0.1160
     88  CD        -1.9030   37.0410   37.7030 C.2   131  GLU131      0.3649
     89  OE1       -2.6840   37.9770   37.4320 O.co2 131  GLU131     -0.2457
     90  OE2       -1.8940   35.9580   37.0750 O.co2 131  GLU131     -0.2457
     91  N          2.6900   29.5440   30.2040 N.3   180  SER180     -0.1217
     92  CA         2.0750   28.4950   29.3870 C.3   180  SER180      0.1889
     93  C          2.5030   28.5150   27.9200 C.2   180  SER180      0.2288
     94  O          2.6220   29.5780   27.3140 O.2   180  SER180     -0.2866
     95  CB         0.5500   28.6000   29.4500 C.3   180  SER180      0.2089
     96  OG         0.0550   28.1650   30.7030 O.3   180  SER180     -0.2183
@<TRIPOS>BOND
     1    81    79   ar
     2    79    80   ar
     3    79    78    1
     4    78    75    1
     5    75    74    1
     6    75    76    1
     7    76    77    2
     8    71    70    2
     9    66    65   ar
    10    67    65   ar
    11    65    64    1
    12    70    69    1
    13    15    13    1
    14    64    61    1
    15    68    69    1
    16    68    62   am
    17    73    72    1
    18    69    72    1
    19    13    14    1
    20    13    10    1
    21    61    62    1
    22    61    60    1
    23     2     5    1
    24     2     3    1
    25     2     1    1
    26     9     3   am
    27     9    10    1
    28    62    63    2
    29     5     6    1
    30     3     4    2
    31    10    11    1
    32    60    56   am
    33    37    36   ar
    34    37    35   ar
    35    57    56    2
    36    36    34   ar
    37    56    55    1
    38     6     8   am
    39     6     7    2
    40    11    12    2
    41    11    16   am
    42    35    33   ar
    43    58    55    1
    44    58    59    1
    45    16    17    1
    46    34    32   ar
    47    55    54    1
    48    54    46   am
    49    41    40    2
    50    44    45    1
    51    26    25    2
    52    33    32   ar
    53    42    39    1
    54    42    43    1
    55    40    39    1
    56    32    31    1
    57    23    24    1
    58    23    18   am
    59    59    43    1
    60    46    45    1
    61    46    47    2
    62    25    24    1
    63    45    48    1
    64    17    18    1
    65    17    20    1
    66    21    20    1
    67    39    38    1
    68    38    29   am
    69    18    19    2
    70    27    28    1
    71    20    22    1
    72    31    28    1
    73    94    93    2
    74    29    28    1
    75    29    30    2
    76    48    49    1
    77    93    92    1
    78    49    50   ar
    79    49    51   ar
    80    50    52   ar
    81    51    53   ar
    82    52    53   ar
    83    92    95    1
    84    92    91    1
    85    95    96    1
    86    90    88   ar
    87    89    88   ar
    88    88    87    1
    89    86    87    1
    90    86    83    1
    91    85    84    2
    92    84    83    1
    93    83    82    1
