@<TRIPOS>MOLECULE
tmp/1op2A00.pdb
 77 76 0 0 0
SMALL
GASTEIGER

@<TRIPOS>ATOM
      1  N         56.6300   -4.3520    9.8340 N.3    20  ASN20      -0.1225
      2  CA        57.8700   -4.4950   10.5780 C.3    20  ASN20       0.1785
      3  C         58.7370   -5.4250    9.7410 C.2    20  ASN20       0.2598
      4  O         58.3860   -5.7170    8.6010 O.2    20  ASN20      -0.2718
      5  CB        57.6400   -5.0350   12.0010 C.3    20  ASN20       0.1169
      6  CG        56.9110   -6.3650   12.0380 C.2    20  ASN20       0.2627
      7  OD1       56.7590   -7.0510   11.0250 O.2    20  ASN20      -0.2716
      8  ND2       56.4780   -6.7300   13.2440 N.am   20  ASN20      -0.0877
      9  N         59.8560   -5.8910   10.2800 N.am   21  THR21      -0.1939
     10  CA        60.7450   -6.7560    9.5080 C.3    21  THR21       0.2028
     11  C         60.0790   -7.9690    8.8500 C.2    21  THR21       0.2642
     12  O         60.6440   -8.5540    7.9290 O.2    21  THR21      -0.2714
     13  CB        61.9360   -7.2370   10.3620 C.3    21  THR21       0.1808
     14  OG1       61.4580   -7.9810   11.4890 O.3    21  THR21      -0.2208
     15  CG2       62.7370   -6.0440   10.8550 C.3    21  THR21       0.0379
     16  N         58.8830   -8.3410    9.2960 N.am   22  THR22      -0.1950
     17  CA        58.2020   -9.4850    8.6980 C.3    22  THR22       0.1897
     18  C         57.2030   -9.0760    7.6160 C.2    22  THR22       0.2313
     19  O         56.5830   -9.9330    6.9890 O.2    22  THR22      -0.2863
     20  CB        57.4460  -10.3220    9.7550 C.3    22  THR22       0.1794
     21  OG1       56.3760   -9.5450   10.3130 O.3    22  THR22      -0.2208
     22  CG2       58.3820  -10.7440   10.8620 C.3    22  THR22       0.0378
     23  N         51.2070   -6.1150    8.3790 N.3    25  PHE25      -0.1227
     24  CA        50.4490   -6.8950    9.3540 C.3    25  PHE25       0.1736
     25  C         49.1350   -6.2290    9.7560 C.2    25  PHE25       0.2595
     26  O         48.2710   -6.8630   10.3600 O.2    25  PHE25      -0.2718
     27  CB        51.3160   -7.2090   10.5940 C.3    25  PHE25       0.0547
     28  CG        51.7680   -5.9930   11.3720 C.ar   25  PHE25      -0.0202
     29  CD1       50.9190   -5.3740   12.2820 C.ar   25  PHE25      -0.0042
     30  CD2       53.0520   -5.4820   11.2060 C.ar   25  PHE25      -0.0042
     31  CE1       51.3390   -4.2630   13.0160 C.ar   25  PHE25      -0.0003
     32  CE2       53.4840   -4.3700   11.9320 C.ar   25  PHE25      -0.0003
     33  CZ        52.6240   -3.7600   12.8400 C.ar   25  PHE25      -0.0000
     34  N         48.9790   -4.9570    9.3930 N.am   26  CYS26      -0.1970
     35  CA        47.7700   -4.2030    9.7130 C.3    26  CYS26       0.1712
     36  C         47.6120   -2.9930    8.8130 C.2    26  CYS26       0.2296
     37  O         48.5470   -2.5830    8.1300 O.2    26  CYS26      -0.2864
     38  CB        47.8050   -3.7030   11.1600 C.3    26  CYS26       0.0983
     39  SG        47.2800   -4.8880   12.4330 S.3    26  CYS26      -0.0798
     40  N         44.8990   -3.9560   18.9400 N.3    41  HIS41      -0.1226
     41  CA        45.6090   -5.2280   18.8450 C.3    41  HIS41       0.1752
     42  C         46.6600   -5.2840   17.7440 C.2    41  HIS41       0.2596
     43  O         47.2670   -6.3300   17.5170 O.2    41  HIS41      -0.2718
     44  CB        44.6390   -6.4200   18.7130 C.3    41  HIS41       0.0759
     45  CG        44.0740   -6.6170   17.3390 C.ar   41  HIS41       0.0818
     46  ND1       42.9470   -5.9590   16.8930 N.ar   41  HIS41      -0.2268
     47  CD2       44.4530   -7.4400   16.3290 C.ar   41  HIS41       0.1154
     48  CE1       42.6540   -6.3690   15.6710 C.ar   41  HIS41       0.1986
     49  NE2       43.5520   -7.2680   15.3060 N.ar   41  HIS41      -0.2212
     50  N         46.8770   -4.1600   17.0660 N.am   42  CYS42      -0.1956
     51  CA        47.8880   -4.0800   16.0180 C.3    42  CYS42       0.1843
     52  C         49.1940   -3.5410   16.6110 C.2    42  CYS42       0.2625
     53  O         50.2300   -3.5200   15.9480 O.2    42  CYS42      -0.2714
     54  CB        47.4460   -3.1360   14.9010 C.3    42  CYS42       0.0997
     55  SG        46.1970   -3.7640   13.7300 S.3    42  CYS42      -0.0797
     56  N         49.1380   -3.1030   17.8620 N.am   43  ASP43      -0.1957
     57  CA        50.3110   -2.5380   18.5200 C.3    43  ASP43       0.1840
     58  C         51.4540   -3.5340   18.6350 C.2    43  ASP43       0.2622
     59  O         51.2410   -4.7190   18.8810 O.2    43  ASP43      -0.2715
     60  CB        49.9270   -2.0030   19.9020 C.3    43  ASP43       0.1450
     61  CG        51.0590   -1.2570   20.5740 C.2    43  ASP43       0.3671
     62  OD1       51.8910   -0.6520   19.8610 O.co2  43  ASP43      -0.2456
     63  OD2       51.1060   -1.2630   21.8190 O.co2  43  ASP43      -0.2456
     64  N         52.6700   -3.0380   18.4330 N.am   44  SER44      -0.1950
     65  CA        53.8790   -3.8540   18.5020 C.3    44  SER44       0.1924
     66  C         55.0040   -2.9810   19.0480 C.2    44  SER44       0.2314
     67  O         54.8700   -1.7550   19.0980 O.2    44  SER44      -0.2863
     68  CB        54.2440   -4.3710   17.1090 C.3    44  SER44       0.2116
     69  OG        55.4530   -5.1080   17.1490 O.3    44  SER44      -0.2180
     70  N         58.1320   -2.7000   17.7440 N.3    46  ASN46      -0.1240
     71  CA        58.8520   -2.0790   16.6370 C.3    46  ASN46       0.1653
     72  C         58.1250   -2.2300   15.3030 C.2    46  ASN46       0.2266
     73  O         58.0400   -3.3260   14.7450 O.2    46  ASN46      -0.2867
     74  CB        60.2600   -2.6720   16.4910 C.3    46  ASN46       0.1155
     75  CG        61.1380   -2.4090   17.7000 C.2    46  ASN46       0.2627
     76  OD1       61.3450   -1.2570   18.1000 O.2    46  ASN46      -0.2716
     77  ND2       61.6600   -3.4790   18.2910 N.am   46  ASN46      -0.0877
@<TRIPOS>BOND
     1    19    18    2
     2    18    17    1
     3    12    11    2
     4    37    36    2
     5    23    24    1
     6     4     3    2
     7    17    16    1
     8    17    20    1
     9    36    35    1
    10    11    16   am
    11    11    10    1
    12    24    25    1
    13    24    27    1
    14    34    35    1
    15    34    25   am
    16    10     9    1
    17    10    13    1
    18    35    38    1
    19     3     9   am
    20     3     2    1
    21    20    21    1
    22    20    22    1
    23    25    26    2
    24     1     2    1
    25    13    15    1
    26    13    14    1
    27     2     5    1
    28    27    28    1
    29     7     6    2
    30    38    39    1
    31    30    28   ar
    32    30    32   ar
    33    28    29   ar
    34    32    33   ar
    35     5     6    1
    36     6     8   am
    37    29    31   ar
    38    39    55    1
    39    33    31   ar
    40    55    54    1
    41    73    72    2
    42    54    51    1
    43    72    71    1
    44    49    48   ar
    45    49    47   ar
    46    48    46   ar
    47    53    52    2
    48    51    52    1
    49    51    50    1
    50    47    45   ar
    51    74    71    1
    52    74    75    1
    53    52    56   am
    54    71    70    1
    55    46    45   ar
    56    50    42   am
    57    68    69    1
    58    68    65    1
    59    45    44    1
    60    43    42    2
    61    75    76    2
    62    75    77   am
    63    42    41    1
    64    56    57    1
    65    64    65    1
    66    64    58   am
    67    65    66    1
    68    57    58    1
    69    57    60    1
    70    58    59    2
    71    44    41    1
    72    41    40    1
    73    66    67    2
    74    62    61   ar
    75    60    61    1
    76    61    63   ar
