@<TRIPOS>MOLECULE
tmp/1opkA00.pdb
 137 127 0 0 0
SMALL
GASTEIGER

@<TRIPOS>ATOM
      1  N         47.1140   11.0040   -4.8240 N.3   269  ARG269     -0.1245
      2  CA        46.3420   11.9880   -5.5560 C.3   269  ARG269      0.1563
      3  C         45.1780   11.4380   -6.3850 C.2   269  ARG269      0.2260
      4  O         44.3640   12.2010   -6.8950 O.2   269  ARG269     -0.2867
      5  CB        47.2930   12.8400   -6.3940 C.3   269  ARG269      0.0307
      6  CG        48.3060   13.5530   -5.5010 C.3   269  ARG269      0.0489
      7  CD        49.1160   14.6010   -6.2190 C.3   269  ARG269      0.2205
      8  NE        50.2190   15.0720   -5.3860 N.pl3 269  ARG269     -0.0865
      9  CZ        51.0410   16.0600   -5.7240 C.cat 269  ARG269      0.5346
     10  NH1       50.8840   16.6870   -6.8810 N.pl3 269  ARG269      0.1354
     11  NH2       52.0270   16.4160   -4.9110 N.pl3 269  ARG269      0.1354
     12  N         40.2550   16.3230   -7.0230 N.3   274  ALA274     -0.1245
     13  CA        39.7230   17.6750   -6.8800 C.3   274  ALA274      0.1562
     14  C         38.4430   17.7750   -6.0480 C.2   274  ALA274      0.2260
     15  O         38.2600   18.7330   -5.3110 O.2   274  ALA274     -0.2867
     16  CB        39.5060   18.3060   -8.2540 C.3   274  ALA274      0.0290
     17  N         39.5510   17.7840   -2.4990 N.3   277  LEU277     -0.1231
     18  CA        40.1840   19.0480   -2.1110 C.3   277  LEU277      0.1693
     19  C         39.1040   20.1070   -1.8870 C.2   277  LEU277      0.2591
     20  O         39.1850   20.8990   -0.9610 O.2   277  LEU277     -0.2718
     21  CB        41.1450   19.5340   -3.2030 C.3   277  LEU277      0.0284
     22  CG        42.3130   18.5880   -3.5300 C.3   277  LEU277      0.0019
     23  CD1       43.1420   19.2010   -4.6660 C.3   277  LEU277      0.0001
     24  CD2       43.1940   18.3650   -2.3080 C.3   277  LEU277      0.0001
     25  N         38.0880   20.1220   -2.7400 N.am  278  LEU278     -0.1980
     26  CA        37.0010   21.0880   -2.5980 C.3   278  LEU278      0.1596
     27  C         36.2620   20.8340   -1.2770 C.2   278  LEU278      0.2287
     28  O         35.8790   21.7600   -0.5760 O.2   278  LEU278     -0.2864
     29  CB        36.0320   20.9530   -3.7730 C.3   278  LEU278      0.0297
     30  CG        34.7460   21.7900   -3.7290 C.3   278  LEU278      0.0022
     31  CD1       35.0880   23.2830   -3.6370 C.3   278  LEU278      0.0001
     32  CD2       33.9160   21.5190   -4.9810 C.3   278  LEU278      0.0001
     33  N         38.4610   22.2380    1.5490 N.3   281  ALA281     -0.1245
     34  CA        38.4750   23.7040    1.5760 C.3   281  ALA281      0.1562
     35  C         37.1430   24.2430    2.0950 C.2   281  ALA281      0.2260
     36  O         37.0940   25.2490    2.8110 O.2   281  ALA281     -0.2867
     37  CB        38.7320   24.2610    0.1630 C.3   281  ALA281      0.0290
     38  N         44.2130   28.1670    0.5330 N.3   366  LEU366     -0.1245
     39  CA        43.5420   27.6060   -0.6470 C.3   366  LEU366      0.1561
     40  C         44.5790   27.2350   -1.7200 C.2   366  LEU366      0.2260
     41  O         44.4640   26.2140   -2.4090 O.2   366  LEU366     -0.2867
     42  CB        42.5620   28.6280   -1.2080 C.3   366  LEU366      0.0270
     43  CG        41.1370   28.2860   -1.6210 C.3   366  LEU366      0.0019
     44  CD1       40.6940   29.3130   -2.6730 C.3   366  LEU366      0.0001
     45  CD2       41.0170   26.8730   -2.1460 C.3   366  LEU366      0.0001
     46  N         46.2370   24.0940   -0.7150 N.3   369  ILE369     -0.1231
     47  CA        45.3810   22.9460   -1.0010 C.3   369  ILE369      0.1692
     48  C         45.4240   22.5770   -2.4880 C.2   369  ILE369      0.2591
     49  O         45.6290   21.4040   -2.8390 O.2   369  ILE369     -0.2718
     50  CB        43.9300   23.2470   -0.5590 C.3   369  ILE369      0.0266
     51  CG1       43.8660   23.2420    0.9740 C.3   369  ILE369      0.0019
     52  CG2       42.9690   22.2240   -1.1440 C.3   369  ILE369      0.0020
     53  CD1       42.5110   23.6330    1.5460 C.3   369  ILE369      0.0001
     54  N         45.2740   23.5850   -3.3490 N.am  370  ALA370     -0.1980
     55  CA        45.2730   23.3890   -4.7940 C.3   370  ALA370      0.1597
     56  C         46.5860   22.8900   -5.3690 C.2   370  ALA370      0.2287
     57  O         46.6160   22.3620   -6.4830 O.2   370  ALA370     -0.2864
     58  CB        44.8450   24.6810   -5.5020 C.3   370  ALA370      0.0319
     59  N         48.5270   20.7030   -3.5660 N.3   372  TYR372     -0.1241
     60  CA        48.8540   19.5140   -2.7660 C.3   372  TYR372      0.1605
     61  C         50.0200   19.8050   -1.8170 C.2   372  TYR372      0.2264
     62  O         50.9370   19.0000   -1.6580 O.2   372  TYR372     -0.2867
     63  CB        49.1850   18.2950   -3.6430 C.3   372  TYR372      0.0534
     64  CG        47.9590   17.6690   -4.2800 C.ar  372  TYR372     -0.0201
     65  CD1       47.1780   16.7460   -3.5870 C.ar  372  TYR372     -0.0009
     66  CD2       47.5530   18.0380   -5.5590 C.ar  372  TYR372     -0.0009
     67  CE1       46.0260   16.2100   -4.1510 C.ar  372  TYR372      0.0417
     68  CE2       46.4020   17.5090   -6.1310 C.ar  372  TYR372      0.0417
     69  CZ        45.6410   16.6020   -5.4290 C.ar  372  TYR372      0.1957
     70  OH        44.4830   16.1070   -5.9900 O.3   372  TYR372     -0.2866
     71  N         48.6830   24.6300  -11.3480 N.3   399  GLU399     -0.1231
     72  CA        48.4360   23.7480  -12.4780 C.3   399  GLU399      0.1699
     73  C         47.1120   23.0050  -12.2770 C.2   399  GLU399      0.2593
     74  O         46.9090   22.3570  -11.2530 O.2   399  GLU399     -0.2718
     75  CB        49.5860   22.7450  -12.5910 C.3   399  GLU399      0.0402
     76  CG        49.4480   21.7480  -13.7180 C.3   399  GLU399      0.1161
     77  CD        50.6130   20.7810  -13.7730 C.2   399  GLU399      0.3649
     78  OE1       51.4300   20.7670  -12.8200 O.co2 399  GLU399     -0.2457
     79  OE2       50.7060   20.0280  -14.7660 O.co2 399  GLU399     -0.2457
     80  N         46.2160   23.1200  -13.2520 N.am  400  GLY400     -0.1942
     81  CA        44.9330   22.4410  -13.1730 C.3   400  GLY400      0.2014
     82  C         43.8670   23.0980  -12.3150 C.2   400  GLY400      0.2639
     83  O         42.7190   22.6540  -12.3050 O.2   400  GLY400     -0.2714
     84  N         44.2160   24.1630  -11.6050 N.am  401  CYS401     -0.1954
     85  CA        43.2420   24.8340  -10.7500 C.3   401  CYS401      0.1828
     86  C         42.1270   25.4960  -11.5470 C.2   401  CYS401      0.2467
     87  O         42.3920   26.2790  -12.4520 O.2   401  CYS401     -0.2730
     88  CB        43.9430   25.8990   -9.8940 C.3   401  CYS401      0.0996
     89  SG        42.8280   26.7210   -8.7320 S.3   401  CYS401     -0.0797
     90  N         40.8600   25.1930  -11.2230 N.am  402  PRO402     -0.2726
     91  CA        39.8130   25.8540  -12.0060 C.3   402  PRO402      0.1402
     92  C         39.8160   27.3810  -11.8480 C.2   402  PRO402      0.2269
     93  O         40.1480   27.9160  -10.7920 O.2   402  PRO402     -0.2865
     94  CB        38.5150   25.1900  -11.5220 C.3   402  PRO402      0.0296
     95  CG        38.8760   24.4820  -10.2660 C.3   402  PRO402      0.0237
     96  CD        40.3230   24.1130  -10.3800 C.3   402  PRO402      0.0939
     97  N         38.1250   29.0270   -8.8390 N.3   405  VAL405     -0.1245
     98  CA        38.8030   28.8190   -7.5610 C.3   405  VAL405      0.1561
     99  C         39.9180   29.8670   -7.4510 C.2   405  VAL405      0.2260
    100  O         40.1090   30.4790   -6.4010 O.2   405  VAL405     -0.2867
    101  CB        39.4040   27.4000   -7.4720 C.3   405  VAL405      0.0252
    102  CG1       40.3180   27.2890   -6.2470 C.3   405  VAL405      0.0019
    103  CG2       38.2620   26.3580   -7.3790 C.3   405  VAL405      0.0019
    104  N         31.8850   28.6110   -2.5550 N.3   430  PHE430     -0.1241
    105  CA        32.2700   27.2280   -2.8260 C.3   430  PHE430      0.1605
    106  C         31.0320   26.3870   -3.1470 C.2   430  PHE430      0.2264
    107  O         31.0220   25.6020   -4.0970 O.2   430  PHE430     -0.2867
    108  CB        32.9470   26.6000   -1.6090 C.3   430  PHE430      0.0534
    109  CG        34.3920   26.9440   -1.4770 C.ar  430  PHE430     -0.0203
    110  CD1       35.2630   26.7450   -2.5440 C.ar  430  PHE430     -0.0042
    111  CD2       34.8860   27.4780   -0.2920 C.ar  430  PHE430     -0.0042
    112  CE1       36.6160   27.0770   -2.4390 C.ar  430  PHE430     -0.0003
    113  CE2       36.2270   27.8110   -0.1790 C.ar  430  PHE430     -0.0003
    114  CZ        37.0980   27.6120   -1.2570 C.ar  430  PHE430     -0.0000
    115  N         33.6490   19.7730  -10.6610 N.3   439  ILE439     -0.1245
    116  CA        34.9870   20.3200  -10.5190 C.3   439  ILE439      0.1561
    117  C         35.8850   19.3970  -11.3320 C.2   439  ILE439      0.2260
    118  O         36.8620   19.8320  -11.9350 O.2   439  ILE439     -0.2867
    119  CB        35.4420   20.3730   -9.0290 C.3   439  ILE439      0.0252
    120  CG1       36.8450   20.9800   -8.9430 C.3   439  ILE439      0.0019
    121  CG2       35.4190   18.9690   -8.4080 C.3   439  ILE439      0.0019
    122  CD1       37.2380   21.4490   -7.5550 C.3   439  ILE439      0.0001
    123  N         38.6240   20.7880  -14.0490 N.3   443  VAL443     -0.1245
    124  CA        40.0490   20.5040  -13.9590 C.3   443  VAL443      0.1561
    125  C         40.5020   19.9810  -15.3250 C.2   443  VAL443      0.2260
    126  O         41.6110   20.2680  -15.7730 O.2   443  VAL443     -0.2867
    127  CB        40.3320   19.4600  -12.8620 C.3   443  VAL443      0.0252
    128  CG1       41.8010   19.0660  -12.8660 C.3   443  VAL443      0.0019
    129  CG2       39.9510   20.0330  -11.5100 C.3   443  VAL443      0.0019
    130  N         43.4000   21.4590  -17.8070 N.3   447  LEU447     -0.1245
    131  CA        44.5560   20.6600  -18.2030 C.3   447  LEU447      0.1561
    132  C         44.5850   20.4310  -19.7080 C.2   447  LEU447      0.2260
    133  O         45.5770   20.7580  -20.3420 O.2   447  LEU447     -0.2867
    134  CB        44.5300   19.3210  -17.4620 C.3   447  LEU447      0.0270
    135  CG        44.9210   19.4270  -15.9730 C.3   447  LEU447      0.0019
    136  CD1       44.8100   18.0580  -15.3450 C.3   447  LEU447      0.0001
    137  CD2       46.3310   19.9790  -15.8380 C.3   447  LEU447      0.0001
@<TRIPOS>BOND
     1   133   132    2
     2   132   131    1
     3   131   130    1
     4   131   134    1
     5   134   135    1
     6   135   137    1
     7   135   136    1
     8   126   125    2
     9   125   124    1
    10    79    77   ar
    11   123   124    1
    12   124   127    1
    13    77    76    1
    14    77    78   ar
    15    76    75    1
    16    80    81    1
    17    80    73   am
    18    81    82    1
    19   128   127    1
    20   127   129    1
    21    75    72    1
    22    72    73    1
    23    72    71    1
    24    87    86    2
    25    82    83    2
    26    82    84   am
    27    73    74    2
    28    91    92    1
    29    91    94    1
    30    91    90    1
    31   118   117    2
    32    92    93    2
    33    84    85    1
    34    86    90   am
    35    86    85    1
    36    94    95    1
    37   117   116    1
    38    90    96    1
    39    85    88    1
    40   115   116    1
    41   116   119    1
    42    96    95    1
    43    88    89    1
    44   119   120    1
    45   119   121    1
    46   120   122    1
    47    97    98    1
    48    16    13    1
    49    98   101    1
    50    98    99    1
    51   101   103    1
    52   101   102    1
    53    99   100    2
    54    12    13    1
    55     4     3    2
    56    10     9    1
    57    13    14    1
    58    57    56    2
    59     5     2    1
    60     5     6    1
    61     3     2    1
    62     7     6    1
    63     7     8    1
    64    68    66   ar
    65    68    69   ar
    66    14    15    2
    67    70    69    1
    68     9     8    2
    69     9    11    1
    70    66    64   ar
    71     2     1    1
    72    58    55    1
    73    69    67   ar
    74    56    55    1
    75    32    30    1
    76    55    54    1
    77    23    22    1
    78    64    63    1
    79    64    65   ar
    80    67    65   ar
    81   107   106    2
    82    29    30    1
    83    29    26    1
    84    30    31    1
    85    63    60    1
    86    59    60    1
    87    22    21    1
    88    22    24    1
    89    54    48   am
    90    21    18    1
    91   106   105    1
    92    49    48    2
    93   105   104    1
    94   105   108    1
    95    60    61    1
    96    25    26    1
    97    25    19   am
    98    44    43    1
    99    26    27    1
   100   110   112   ar
   101   110   109   ar
   102    17    18    1
   103    48    47    1
   104   112   114   ar
   105    41    40    2
   106    45    43    1
   107    18    19    1
   108    19    20    2
   109    61    62    2
   110    40    39    1
   111    43    42    1
   112   108   109    1
   113   109   111   ar
   114    27    28    2
   115   114   113   ar
   116    42    39    1
   117    52    50    1
   118    47    46    1
   119    47    50    1
   120    39    38    1
   121    50    51    1
   122   111   113   ar
   123    37    34    1
   124    51    53    1
   125    33    34    1
   126    34    35    1
   127    35    36    2
