@<TRIPOS>MOLECULE
tmp/1opmA00.pdb
 138 128 0 0 0
SMALL
GASTEIGER

@<TRIPOS>ATOM
      1  N         36.1280   33.8340   44.7500 N.3    66  LEU66      -0.1245
      2  CA        36.3570   32.5170   45.2980 C.3    66  LEU66       0.1561
      3  C         36.6380   32.7520   46.7460 C.2    66  LEU66       0.2260
      4  O         37.2970   33.7330   47.0850 O.2    66  LEU66      -0.2867
      5  CB        37.5800   31.8270   44.6690 C.3    66  LEU66       0.0270
      6  CG        37.5710   31.4510   43.1910 C.3    66  LEU66       0.0019
      7  CD1       38.8460   30.7280   42.8630 C.3    66  LEU66       0.0001
      8  CD2       36.3950   30.5710   42.8890 C.3    66  LEU66       0.0001
      9  N         38.1000   30.7310   50.2060 N.3    68  PHE68      -0.1241
     10  CA        38.8320   29.5960   50.7480 C.3    68  PHE68       0.1605
     11  C         38.9450   29.7100   52.2480 C.2    68  PHE68       0.2264
     12  O         38.7920   30.7850   52.8220 O.2    68  PHE68      -0.2867
     13  CB        40.2920   29.6060   50.2660 C.3    68  PHE68       0.0534
     14  CG        40.4450   29.7120   48.7950 C.ar   68  PHE68      -0.0203
     15  CD1       40.4910   30.9530   48.1810 C.ar   68  PHE68      -0.0042
     16  CD2       40.5460   28.5640   48.0100 C.ar   68  PHE68      -0.0042
     17  CE1       40.6340   31.0600   46.8020 C.ar   68  PHE68      -0.0003
     18  CE2       40.6880   28.6620   46.6360 C.ar   68  PHE68      -0.0003
     19  CZ        40.7320   29.9230   46.0310 C.ar   68  PHE68      -0.0000
     20  N         47.7630   24.5370   52.3240 N.3    90  LYS90      -0.1231
     21  CA        46.8160   24.1460   51.2930 C.3    90  LYS90       0.1693
     22  C         45.4090   24.6710   51.5660 C.2    90  LYS90       0.2591
     23  O         44.7270   24.2050   52.4710 O.2    90  LYS90      -0.2718
     24  CB        46.8280   22.6220   51.1030 C.3    90  LYS90       0.0285
     25  CG        47.9570   22.1280   50.1640 C.3    90  LYS90       0.0035
     26  CD        49.3630   22.5270   50.6420 C.3    90  LYS90       0.0206
     27  CE        50.1800   23.2940   49.5770 C.3    90  LYS90       0.1093
     28  NZ        50.2530   24.7930   49.7590 N.3    90  LYS90      -0.1314
     29  N         44.9880   25.6370   50.7610 N.am   91  ALA91      -0.1980
     30  CA        43.6800   26.2550   50.9070 C.3    91  ALA91       0.1597
     31  C         42.5610   25.3050   50.5620 C.2    91  ALA91       0.2287
     32  O         42.7220   24.4430   49.7090 O.2    91  ALA91      -0.2864
     33  CB        43.5960   27.4940   50.0280 C.3    91  ALA91       0.0319
     34  N         38.7820   25.2400   49.1750 N.3    93  ILE93      -0.1245
     35  CA        37.7990   26.1110   48.5420 C.3    93  ILE93       0.1561
     36  C         36.4170   25.8590   49.1660 C.2    93  ILE93       0.2260
     37  O         36.0360   24.7160   49.4110 O.2    93  ILE93      -0.2867
     38  CB        37.7930   25.9040   47.0100 C.3    93  ILE93       0.0252
     39  CG1       37.0130   27.0210   46.3110 C.3    93  ILE93       0.0019
     40  CG2       37.2680   24.5160   46.6760 C.3    93  ILE93       0.0019
     41  CD1       37.1730   27.0020   44.8030 C.3    93  ILE93       0.0001
     42  N         39.2900   17.0610   45.8330 N.3   162  LEU162     -0.1245
     43  CA        39.9910   17.6730   44.7090 C.3   162  LEU162      0.1561
     44  C         40.8040   16.7080   43.8480 C.2   162  LEU162      0.2260
     45  O         41.7160   16.0490   44.3290 O.2   162  LEU162     -0.2867
     46  CB        40.9140   18.7900   45.2100 C.3   162  LEU162      0.0270
     47  CG        41.8050   19.4540   44.1590 C.3   162  LEU162      0.0019
     48  CD1       40.9910   20.1400   43.0630 C.3   162  LEU162      0.0001
     49  CD2       42.7100   20.4290   44.8540 C.3   162  LEU162      0.0001
     50  N         43.2980   16.5930   40.7000 N.3   164  MET164     -0.1230
     51  CA        44.1470   17.4780   39.9250 C.3   164  MET164      0.1702
     52  C         45.3920   16.7860   39.3680 C.2   164  MET164      0.2593
     53  O         45.9150   15.8490   39.9770 O.2   164  MET164     -0.2718
     54  CB        44.5920   18.6540   40.7890 C.3   164  MET164      0.0401
     55  CG        45.4180   18.2630   41.9940 C.3   164  MET164      0.0596
     56  SD        46.1510   19.7120   42.8030 S.3   164  MET164     -0.1393
     57  CE        47.1930   20.2810   41.5250 C.3   164  MET164      0.0692
     58  N         45.8540   17.2660   38.2130 N.am  165  SER165     -0.1938
     59  CA        47.0450   16.7480   37.5600 C.3   165  SER165      0.2055
     60  C         48.2380   17.5610   38.0230 C.2   165  SER165      0.2642
     61  O         48.1160   18.7540   38.3240 O.2   165  SER165     -0.2714
     62  CB        46.9460   16.9250   36.0550 C.3   165  SER165      0.2130
     63  OG        45.7240   16.4380   35.5560 O.3   165  SER165     -0.2179
     64  N         49.4090   16.9400   37.9870 N.am  166  VAL166     -0.1977
     65  CA        50.6540   17.6080   38.3700 C.3   166  VAL166      0.1596
     66  C         51.7340   17.3990   37.2890 C.2   166  VAL166      0.2287
     67  O         52.5860   18.2600   37.0700 O.2   166  VAL166     -0.2864
     68  CB        51.2080   17.0440   39.7420 C.3   166  VAL166      0.0276
     69  CG1       50.3280   17.4670   40.9180 C.3   166  VAL166      0.0022
     70  CG2       51.2700   15.5100   39.7060 C.3   166  VAL166      0.0022
     71  N         32.9670   21.8260   40.4370 N.3   196  ARG196     -0.1245
     72  CA        33.5170   22.9660   39.7330 C.3   196  ARG196      0.1563
     73  C         34.7070   22.4440   38.9180 C.2   196  ARG196      0.2260
     74  O         35.4010   21.5110   39.3500 O.2   196  ARG196     -0.2867
     75  CB        34.0000   24.0170   40.7230 C.3   196  ARG196      0.0307
     76  CG        34.7180   25.1760   40.0670 C.3   196  ARG196      0.0489
     77  CD        34.9550   26.2850   41.0410 C.3   196  ARG196      0.2205
     78  NE        35.8170   27.3290   40.4810 N.pl3 196  ARG196     -0.0865
     79  CZ        37.1390   27.3840   40.6380 C.cat 196  ARG196      0.5346
     80  NH1       37.7590   26.4570   41.3390 N.pl3 196  ARG196      0.1354
     81  NH2       37.8420   28.3630   40.1000 N.pl3 196  ARG196      0.1354
     82  N         38.2430   23.4650   36.6290 N.3   198  HIS198     -0.1241
     83  CA        39.1580   24.5610   36.4530 C.3   198  HIS198      0.1621
     84  C         40.3160   24.1660   35.5550 C.2   198  HIS198      0.2264
     85  O         41.0600   23.2270   35.8480 O.2   198  HIS198     -0.2867
     86  CB        39.6760   25.0950   37.7840 C.3   198  HIS198      0.0745
     87  CG        40.7150   26.1530   37.6110 C.ar  198  HIS198      0.0817
     88  ND1       40.4510   27.4220   37.1460 N.ar  198  HIS198     -0.2268
     89  CD2       42.0570   26.0910   37.7560 C.ar  198  HIS198      0.1154
     90  CE1       41.6030   28.0740   37.0160 C.ar  198  HIS198      0.1986
     91  NE2       42.6070   27.3050   37.3740 N.ar  198  HIS198     -0.2212
     92  N         51.8860   21.9380   33.8210 N.3   262  ILE262     -0.1231
     93  CA        51.0380   22.3580   34.9190 C.3   262  ILE262      0.1692
     94  C         51.7250   23.4820   35.7030 C.2   262  ILE262      0.2592
     95  O         52.9380   23.4310   35.9560 O.2   262  ILE262     -0.2718
     96  CB        50.7040   21.1940   35.8560 C.3   262  ILE262      0.0266
     97  CG1       49.8310   20.1500   35.1460 C.3   262  ILE262      0.0019
     98  CG2       50.0440   21.7160   37.1020 C.3   262  ILE262      0.0020
     99  CD1       48.6060   20.6850   34.5220 C.3   262  ILE262      0.0001
    100  N         50.9520   24.5150   36.0530 N.am  263  GLY263     -0.1957
    101  CA        51.5160   25.6280   36.7990 C.3   263  GLY263      0.1869
    102  C         50.5400   26.7400   37.0890 C.2   263  GLY263      0.2309
    103  O         49.4100   26.7180   36.6150 O.2   263  GLY263     -0.2863
    104  N         46.2620   23.8760   34.1680 N.3   270  MET270     -0.1245
    105  CA        45.8210   23.2450   35.4020 C.3   270  MET270      0.1570
    106  C         44.7050   22.3350   35.0050 C.2   270  MET270      0.2261
    107  O         44.0100   22.6230   34.0530 O.2   270  MET270     -0.2867
    108  CB        45.2510   24.2680   36.3890 C.3   270  MET270      0.0387
    109  CG        46.2950   25.0090   37.1840 C.3   270  MET270      0.0595
    110  SD        45.5720   26.0180   38.4630 S.3   270  MET270     -0.1393
    111  CE        47.0800   26.6740   39.2060 C.3   270  MET270      0.0692
    112  N         41.7770   20.6370   37.1090 N.3   272  ASN272     -0.1240
    113  CA        41.1570   20.4640   38.4090 C.3   272  ASN272      0.1653
    114  C         39.7020   20.1240   38.3140 C.2   272  ASN272      0.2266
    115  O         38.9680   20.7310   37.5190 O.2   272  ASN272     -0.2867
    116  CB        41.1600   21.7680   39.2040 C.3   272  ASN272      0.1155
    117  CG        42.5160   22.3720   39.3870 C.2   272  ASN272      0.2627
    118  OD1       42.6270   23.5950   39.5610 O.2   272  ASN272     -0.2716
    119  ND2       43.5540   21.5440   39.3900 N.am  272  ASN272     -0.0877
    120  N         36.8280   19.8630   41.1720 N.3   274  TYR274     -0.1241
    121  CA        36.4500   19.9630   42.5730 C.3   274  TYR274      0.1605
    122  C         35.0980   19.2680   42.7670 C.2   274  TYR274      0.2264
    123  O         34.1090   19.6410   42.1350 O.2   274  TYR274     -0.2867
    124  CB        36.3030   21.4150   42.9820 C.3   274  TYR274      0.0534
    125  CG        37.5630   22.2040   42.9270 C.ar  274  TYR274     -0.0201
    126  CD1       38.0020   22.7870   41.7290 C.ar  274  TYR274     -0.0009
    127  CD2       38.3120   22.4150   44.0850 C.ar  274  TYR274     -0.0009
    128  CE1       39.1690   23.5730   41.6860 C.ar  274  TYR274      0.0417
    129  CE2       39.4690   23.1830   44.0520 C.ar  274  TYR274      0.0417
    130  CZ        39.8950   23.7590   42.8540 C.ar  274  TYR274      0.1957
    131  OH        41.0530   24.4900   42.8620 O.3   274  TYR274     -0.2866
    132  N         42.2100   14.5670   48.4300 N.3   289  THR289     -0.1218
    133  CA        42.8720   14.9760   47.1970 C.3   289  THR289      0.1862
    134  C         43.3430   13.7590   46.4270 C.2   289  THR289      0.2287
    135  O         43.6240   12.7120   47.0080 O.2   289  THR289     -0.2866
    136  CB        44.1170   15.8480   47.4710 C.3   289  THR289      0.1770
    137  OG1       43.8060   16.8520   48.4500 O.3   289  THR289     -0.2211
    138  CG2       44.5640   16.5530   46.1720 C.3   289  THR289      0.0375
@<TRIPOS>BOND
     1    92    93    1
     2   107   106    2
     3   104   105    1
     4    99    97    1
     5    93    94    1
     6    93    96    1
     7   106   105    1
     8    97    96    1
     9   105   108    1
    10    84    85    2
    11    84    83    1
    12    63    62    1
    13    94    95    2
    14    94   100   am
    15    96    98    1
    16   100   101    1
    17    62    59    1
    18   108   109    1
    19    83    82    1
    20    83    86    1
    21   103   102    2
    22   101   102    1
    23    90    88   ar
    24    90    91   ar
    25    67    66    2
    26   112   113    1
    27    88    87   ar
    28   109   110    1
    29    66    65    1
    30    91    89   ar
    31   115   114    2
    32    59    60    1
    33    59    58    1
    34    87    89   ar
    35    87    86    1
    36    64    60   am
    37    64    65    1
    38    60    61    2
    39    58    52   am
    40   114   113    1
    41    65    68    1
    42   113   116    1
    43   110   111    1
    44    73    74    2
    45    73    72    1
    46   116   117    1
    47    52    51    1
    48    52    53    2
    49   117   119   am
    50   117   118    2
    51    70    68    1
    52    72    71    1
    53    72    75    1
    54    68    69    1
    55    51    50    1
    56    51    54    1
    57    76    75    1
    58    76    77    1
    59    81    79    1
    60    78    79    2
    61    78    77    1
    62    79    80    1
    63    54    55    1
    64   120   121    1
    65    57    56    1
    66   128   126   ar
    67   128   130   ar
    68   126   125   ar
    69    55    56    1
    70   123   122    2
    71   121   122    1
    72   121   124    1
    73   130   131    1
    74   130   129   ar
    75     7     6    1
    76     8     6    1
    77   125   124    1
    78   125   127   ar
    79    48    47    1
    80     6     5    1
    81    44    45    2
    82    44    43    1
    83   129   127   ar
    84    47    49    1
    85    47    46    1
    86     5     2    1
    87    43    46    1
    88    43    42    1
    89     1     2    1
    90    41    39    1
    91     2     3    1
    92    19    18   ar
    93    19    17   ar
    94   138   136    1
    95    39    38    1
    96   134   135    2
    97   134   133    1
    98    18    16   ar
    99    40    38    1
   100     3     4    2
   101    17    15   ar
   102    38    35    1
   103   133   136    1
   104   133   132    1
   105   136   137    1
   106    16    14   ar
   107    15    14   ar
   108    35    36    1
   109    35    34    1
   110    14    13    1
   111    36    37    2
   112    27    28    1
   113    27    26    1
   114    32    31    2
   115    33    30    1
   116    25    26    1
   117    25    24    1
   118     9    10    1
   119    13    10    1
   120    31    30    1
   121    10    11    1
   122    29    30    1
   123    29    22   am
   124    24    21    1
   125    21    22    1
   126    21    20    1
   127    22    23    2
   128    11    12    2
