@<TRIPOS>MOLECULE
tmp/1opmA01.pdb
 117 110 0 0 0
SMALL
GASTEIGER

@<TRIPOS>ATOM
      1  N         27.6060   40.6240   62.1060 N.3    11  THR11      -0.1218
      2  CA        26.1840   40.8580   62.3800 C.3    11  THR11       0.1862
      3  C         25.6350   39.7130   63.2180 C.2    11  THR11       0.2287
      4  O         25.5860   38.5670   62.7780 O.2    11  THR11      -0.2866
      5  CB        25.3230   40.9250   61.1070 C.3    11  THR11       0.1770
      6  OG1       25.8300   41.9200   60.2130 O.3    11  THR11      -0.2211
      7  CG2       23.9060   41.2690   61.4670 C.3    11  THR11       0.0375
      8  N         23.0590   37.2550   64.7420 N.3    13  LEU13      -0.1231
      9  CA        21.7880   36.7670   64.2050 C.3    13  LEU13       0.1693
     10  C         20.8670   36.2360   65.3030 C.2    13  LEU13       0.2592
     11  O         19.6520   36.4110   65.2380 O.2    13  LEU13      -0.2718
     12  CB        22.0140   35.7370   63.0990 C.3    13  LEU13       0.0284
     13  CG        22.7170   36.3140   61.8650 C.3    13  LEU13       0.0019
     14  CD1       23.0250   35.1960   60.8610 C.3    13  LEU13       0.0001
     15  CD2       21.8570   37.4110   61.2220 C.3    13  LEU13       0.0001
     16  N         21.4530   35.5980   66.3050 N.am   14  ASP14      -0.1974
     17  CA        20.7360   35.0670   67.4640 C.3    14  ASP14       0.1709
     18  C         21.7960   34.4980   68.4130 C.2    14  ASP14       0.2293
     19  O         22.9900   34.7030   68.1910 O.2    14  ASP14      -0.2864
     20  CB        19.6520   34.0390   67.0820 C.3    14  ASP14       0.1436
     21  CG        20.1700   32.6300   67.0130 C.2    14  ASP14       0.3671
     22  OD1       20.1400   31.9390   68.0500 O.co2  14  ASP14      -0.2456
     23  OD2       20.5980   32.2060   65.9260 O.co2  14  ASP14      -0.2456
     24  N         24.3430   32.2000   66.2770 N.3    17  ASP17      -0.1239
     25  CA        24.6410   32.5160   64.8830 C.3    17  ASP17       0.1674
     26  C         25.0780   33.9490   64.6070 C.2    17  ASP17       0.2266
     27  O         24.6730   34.8900   65.3070 O.2    17  ASP17      -0.2867
     28  CB        23.3790   32.2980   64.0380 C.3    17  ASP17       0.1410
     29  CG        23.0010   30.8400   63.8770 C.2    17  ASP17       0.3668
     30  OD1       23.3510   30.0020   64.7280 O.co2  17  ASP17      -0.2456
     31  OD2       22.3320   30.5300   62.8760 O.co2  17  ASP17      -0.2456
     32  N         26.5090   36.6030   60.9530 N.3    19  ALA19      -0.1245
     33  CA        26.9510   36.7420   59.5690 C.3    19  ALA19       0.1562
     34  C         28.2620   37.5110   59.6060 C.2    19  ALA19       0.2260
     35  O         28.3900   38.4820   60.3520 O.2    19  ALA19      -0.2867
     36  CB        25.9210   37.5040   58.7260 C.3    19  ALA19       0.0290
     37  N         30.8600   39.4370   57.1100 N.3    21  ASP21      -0.1239
     38  CA        31.0460   40.0350   55.7940 C.3    21  ASP21       0.1674
     39  C         32.5190   40.0630   55.4540 C.2    21  ASP21       0.2266
     40  O         33.3110   40.5620   56.2380 O.2    21  ASP21      -0.2867
     41  CB        30.5030   41.4470   55.7790 C.3    21  ASP21       0.1410
     42  CG        29.1230   41.5110   55.2170 C.2    21  ASP21       0.3668
     43  OD1       28.1960   40.8820   55.7740 O.co2  21  ASP21      -0.2456
     44  OD2       28.9670   42.1660   54.1720 O.co2  21  ASP21      -0.2456
     45  N         25.8010   28.9540   55.0480 N.3    52  ASP52      -0.1225
     46  CA        25.2490   29.7410   53.9560 C.3    52  ASP52       0.1805
     47  C         26.2500   30.7600   53.4800 C.2    52  ASP52       0.2598
     48  O         27.1830   31.0990   54.2100 O.2    52  ASP52      -0.2718
     49  CB        23.9740   30.4660   54.4030 C.3    52  ASP52       0.1424
     50  CG        23.0980   30.8780   53.2220 C.2    52  ASP52       0.3668
     51  OD1       23.4260   30.5500   52.0580 O.co2  52  ASP52      -0.2456
     52  OD2       22.0710   31.5330   53.4490 O.co2  52  ASP52      -0.2456
     53  N         26.0520   31.2570   52.2610 N.am   53  PHE53      -0.1962
     54  CA        26.9340   32.2510   51.6320 C.3    53  PHE53       0.1771
     55  C         26.0410   33.1510   50.7920 C.2    53  PHE53       0.2619
     56  O         25.2010   32.6450   50.0770 O.2    53  PHE53      -0.2715
     57  CB        27.9020   31.5850   50.6460 C.3    53  PHE53       0.0574
     58  CG        28.8040   30.5510   51.2530 C.ar   53  PHE53      -0.0200
     59  CD1       28.4220   29.2120   51.2980 C.ar   53  PHE53      -0.0042
     60  CD2       30.0750   30.9010   51.7310 C.ar   53  PHE53      -0.0042
     61  CE1       29.2960   28.2190   51.8100 C.ar   53  PHE53      -0.0003
     62  CE2       30.9520   29.9260   52.2410 C.ar   53  PHE53      -0.0003
     63  CZ        30.5610   28.5750   52.2810 C.ar   53  PHE53      -0.0000
     64  N         26.2270   34.4680   50.8480 N.am   54  LYS54      -0.1977
     65  CA        25.4380   35.4080   50.0300 C.3    54  LYS54       0.1596
     66  C         26.4440   36.3100   49.3480 C.2    54  LYS54       0.2287
     67  O         27.2520   36.9590   50.0250 O.2    54  LYS54      -0.2864
     68  CB        24.5190   36.2990   50.8870 C.3    54  LYS54       0.0298
     69  CG        23.3670   35.6070   51.6410 C.3    54  LYS54       0.0038
     70  CD        22.1800   35.3590   50.7440 C.3    54  LYS54       0.0206
     71  CE        21.0150   34.6920   51.4890 C.3    54  LYS54       0.1093
     72  NZ        21.0960   33.1960   51.5880 N.3    54  LYS54      -0.1314
     73  N         28.0700   39.5080   47.5330 N.3    56  ARG56      -0.1245
     74  CA        27.9200   40.9400   47.7060 C.3    56  ARG56       0.1563
     75  C         28.8940   41.5510   46.6960 C.2    56  ARG56       0.2260
     76  O         29.8690   42.1990   47.0630 O.2    56  ARG56      -0.2867
     77  CB        28.3030   41.2960   49.1490 C.3    56  ARG56       0.0307
     78  CG        27.4030   40.6430   50.2150 C.3    56  ARG56       0.0489
     79  CD        26.1100   41.4310   50.3720 C.3    56  ARG56       0.2205
     80  NE        24.9360   40.6090   50.6670 N.pl3  56  ARG56      -0.0865
     81  CZ        24.5800   40.2070   51.8830 C.cat  56  ARG56       0.5346
     82  NH1       25.3150   40.5420   52.9340 N.pl3  56  ARG56       0.1354
     83  NH2       23.4620   39.5090   52.0510 N.pl3  56  ARG56       0.1354
     84  N         22.6800   27.0360   46.5060 N.3   105  ARG105     -0.1245
     85  CA        22.7590   26.9830   47.9510 C.3   105  ARG105      0.1563
     86  C         23.1550   25.6210   48.5450 C.2   105  ARG105      0.2260
     87  O         22.9860   24.5590   47.9250 O.2   105  ARG105     -0.2867
     88  CB        21.3990   27.4200   48.5040 C.3   105  ARG105      0.0307
     89  CG        21.4440   28.0730   49.8570 C.3   105  ARG105      0.0489
     90  CD        20.0340   28.1820   50.4450 C.3   105  ARG105      0.2205
     91  NE        20.0090   28.9340   51.7040 N.pl3 105  ARG105     -0.0865
     92  CZ        20.5960   28.5470   52.8390 C.cat 105  ARG105      0.5346
     93  NH1       21.2740   27.4000   52.9130 N.pl3 105  ARG105      0.1354
     94  NH2       20.5230   29.3350   53.9040 N.pl3 105  ARG105      0.1354
     95  N         29.1980   37.3540   52.0880 N.3   146  SER146     -0.1202
     96  CA        28.7290   37.3180   53.4590 C.3   146  SER146      0.2020
     97  C         28.5560   35.8270   53.8160 C.2   146  SER146      0.2619
     98  O         27.9380   35.0600   53.0650 O.2   146  SER146     -0.2717
     99  CB        27.3920   38.0380   53.5460 C.3   146  SER146      0.2103
    100  OG        27.0950   38.3940   54.8800 O.3   146  SER146     -0.2182
    101  N         29.0840   35.4170   54.9620 N.am  147  VAL147     -0.1965
    102  CA        29.0070   34.0300   55.3730 C.3   147  VAL147      0.1727
    103  C         28.1920   33.8730   56.6610 C.2   147  VAL147      0.2616
    104  O         28.3260   34.6690   57.5810 O.2   147  VAL147     -0.2715
    105  CB        30.4410   33.4610   55.5640 C.3   147  VAL147      0.0290
    106  CG1       30.3970   31.9950   55.6460 C.3   147  VAL147      0.0023
    107  CG2       31.3320   33.8400   54.3810 C.3   147  VAL147      0.0023
    108  N         27.3420   32.8510   56.7140 N.am  148  HIS148     -0.1973
    109  CA        26.4930   32.5750   57.8780 C.3   148  HIS148      0.1656
    110  C         27.1630   31.4940   58.7590 C.2   148  HIS148      0.2291
    111  O         27.2710   30.3300   58.3500 O.2   148  HIS148     -0.2864
    112  CB        25.0820   32.1180   57.3820 C.3   148  HIS148      0.0771
    113  CG        24.0590   31.9130   58.4730 C.ar  148  HIS148      0.0820
    114  ND1       22.7070   31.8760   58.2180 N.ar  148  HIS148     -0.2267
    115  CD2       24.1920   31.7270   59.8140 C.ar  148  HIS148      0.1154
    116  CE1       22.0480   31.6790   59.3530 C.ar  148  HIS148      0.1986
    117  NE2       22.9260   31.5830   60.3320 N.ar  148  HIS148     -0.2212
@<TRIPOS>BOND
     1    84    85    1
     2    75    76    2
     3    75    74    1
     4    73    74    1
     5    74    77    1
     6    87    86    2
     7    85    88    1
     8    85    86    1
     9    88    89    1
    10    77    78    1
    11    66    67    2
    12    66    65    1
    13    89    90    1
    14    65    64    1
    15    65    68    1
    16    56    55    2
    17    78    79    1
    18    79    80    1
    19    90    91    1
    20    57    58    1
    21    57    54    1
    22    80    81    2
    23    70    71    1
    24    70    69    1
    25    55    64   am
    26    55    54    1
    27    68    69    1
    28    58    59   ar
    29    58    60   ar
    30    59    61   ar
    31    71    72    1
    32    54    53    1
    33    91    92    2
    34    60    62   ar
    35    61    63   ar
    36    81    83    1
    37    81    82    1
    38    51    50   ar
    39    95    96    1
    40    62    63   ar
    41    53    47   am
    42    92    93    1
    43    92    94    1
    44    98    97    2
    45    50    52   ar
    46    50    49    1
    47    96    99    1
    48    96    97    1
    49    47    46    1
    50    47    48    2
    51    99   100    1
    52    97   101   am
    53    46    49    1
    54    46    45    1
    55    44    42   ar
    56   107   105    1
    57   101   102    1
    58    42    43   ar
    59    42    41    1
    60   102   105    1
    61   102   103    1
    62    39    38    1
    63    39    40    2
    64   105   106    1
    65    41    38    1
    66    38    37    1
    67   103   108   am
    68   103   104    2
    69   108   109    1
    70   112   109    1
    71   112   113    1
    72   109   110    1
    73   114   113   ar
    74   114   116   ar
    75   111   110    2
    76   113   115   ar
    77    36    33    1
    78   116   117   ar
    79    33    34    1
    80    33    32    1
    81    34    35    2
    82   115   117   ar
    83     6     5    1
    84    14    13    1
    85     5     7    1
    86     5     2    1
    87    15    13    1
    88    13    12    1
    89     1     2    1
    90     2     3    1
    91     4     3    2
    92    31    29   ar
    93    12     9    1
    94    29    28    1
    95    29    30   ar
    96    28    25    1
    97     9     8    1
    98     9    10    1
    99    26    25    1
   100    26    27    2
   101    25    24    1
   102    11    10    2
   103    10    16   am
   104    23    21   ar
   105    16    17    1
   106    21    20    1
   107    21    22   ar
   108    20    17    1
   109    17    18    1
   110    19    18    2
