@<TRIPOS>MOLECULE
tmp/1oprA00.pdb
 86 82 0 0 0
SMALL
GASTEIGER

@<TRIPOS>ATOM
      1  N         11.0680   34.4170   20.8120 N.3    25  LEU25      -0.1231
      2  CA        12.0480   33.4070   20.4540 C.3    25  LEU25       0.1693
      3  C         11.3970   32.0720   20.0910 C.2    25  LEU25       0.2592
      4  O         10.2670   31.7780   20.4040 O.2    25  LEU25      -0.2718
      5  CB        12.9860   33.1990   21.6380 C.3    25  LEU25       0.0284
      6  CG        13.7980   34.4410   21.9570 C.3    25  LEU25       0.0019
      7  CD1       14.9460   34.0640   22.8520 C.3    25  LEU25       0.0001
      8  CD2       14.2570   35.1400   20.6670 C.3    25  LEU25       0.0001
      9  N         12.1610   31.2080   19.5040 N.am   26  LYS26      -0.1966
     10  CA        11.6790   29.9010   19.2340 C.3    26  LYS26       0.1728
     11  C         11.2300   29.1890   20.5030 C.2    26  LYS26       0.2616
     12  O         10.4110   28.2990   20.4430 O.2    26  LYS26      -0.2715
     13  CB        12.8350   29.1070   18.6740 C.3    26  LYS26       0.0311
     14  CG        12.4970   28.2570   17.4630 C.3    26  LYS26       0.0038
     15  CD        13.7250   27.4760   16.9880 C.3    26  LYS26       0.0206
     16  CE        14.4010   28.0310   15.7210 C.3    26  LYS26       0.1093
     17  NZ        15.6890   27.3460   15.3900 N.3    26  LYS26      -0.1314
     18  N         11.8800   29.4970   21.6280 N.am   27  SER27      -0.1950
     19  CA        11.6540   28.8460   22.9100 C.3    27  SER27       0.1924
     20  C         10.3250   29.2510   23.4880 C.2    27  SER27       0.2314
     21  O          9.7800   28.6270   24.4130 O.2    27  SER27      -0.2863
     22  CB        12.7270   29.2500   23.8940 C.3    27  SER27       0.2116
     23  OG        12.4580   30.5750   24.3430 O.3    27  SER27      -0.2180
     24  N         16.9470   40.8690   19.0330 N.3    34  PHE34      -0.1227
     25  CA        17.0290   39.7020   18.2130 C.3    34  PHE34       0.1736
     26  C         18.1860   39.8280   17.2900 C.2    34  PHE34       0.2595
     27  O         18.5150   40.9550   16.9430 O.2    34  PHE34      -0.2718
     28  CB        15.7750   39.5460   17.3820 C.3    34  PHE34       0.0547
     29  CG        15.6340   38.1600   16.8250 C.ar   34  PHE34      -0.0202
     30  CD1       15.2130   37.1100   17.6380 C.ar   34  PHE34      -0.0042
     31  CD2       15.8190   37.9160   15.4630 C.ar   34  PHE34      -0.0042
     32  CE1       14.9960   35.8460   17.0970 C.ar   34  PHE34      -0.0003
     33  CE2       15.6630   36.6460   14.9130 C.ar   34  PHE34      -0.0003
     34  CZ        15.2310   35.6130   15.7420 C.ar   34  PHE34      -0.0000
     35  N         18.6910   38.6740   16.8150 N.am   35  PHE35      -0.1962
     36  CA        19.7990   38.6140   15.8570 C.3    35  PHE35       0.1771
     37  C         19.5190   37.6420   14.7110 C.2    35  PHE35       0.2619
     38  O         19.3440   36.4310   14.8770 O.2    35  PHE35      -0.2715
     39  CB        21.0180   38.1640   16.6300 C.3    35  PHE35       0.0574
     40  CG        22.3070   38.2250   15.8550 C.ar   35  PHE35      -0.0200
     41  CD1       22.6600   37.1860   14.9960 C.ar   35  PHE35      -0.0042
     42  CD2       23.2190   39.2520   16.1170 C.ar   35  PHE35      -0.0042
     43  CE1       23.8790   37.2210   14.3360 C.ar   35  PHE35      -0.0003
     44  CE2       24.4360   39.3110   15.4560 C.ar   35  PHE35      -0.0003
     45  CZ        24.7520   38.2810   14.5690 C.ar   35  PHE35      -0.0000
     46  N         19.3780   38.1900   13.5300 N.am   36  ASN36      -0.1972
     47  CA        18.9870   37.4400   12.3470 C.3    36  ASN36       0.1688
     48  C         20.0280   37.5680   11.3270 C.2    36  ASN36       0.2292
     49  O         20.0620   38.5800   10.6250 O.2    36  ASN36      -0.2864
     50  CB        17.7460   38.1080   11.7340 C.3    36  ASN36       0.1181
     51  CG        17.1860   37.3810   10.5200 C.2    36  ASN36       0.2629
     52  OD1       17.4150   36.1630   10.3290 O.2    36  ASN36      -0.2716
     53  ND2       16.4160   38.1080    9.7130 N.am   36  ASN36      -0.0877
     54  N         24.3090   30.8560   14.4810 N.3   126  VAL126     -0.1245
     55  CA        23.7880   30.9800   15.8000 C.3   126  VAL126      0.1561
     56  C         23.3410   29.6380   16.2980 C.2   126  VAL126      0.2260
     57  O         23.1980   28.7730   15.4820 O.2   126  VAL126     -0.2867
     58  CB        22.6000   31.8820   15.6700 C.3   126  VAL126      0.0252
     59  CG1       21.4780   31.2720   16.4880 C.3   126  VAL126      0.0019
     60  CG2       22.9510   33.3170   16.0420 C.3   126  VAL126      0.0019
     61  N         20.5380   28.0170   18.9170 N.3   128  THR128     -0.1218
     62  CA        19.4200   28.3630   19.7350 C.3   128  THR128      0.1862
     63  C         19.0490   27.1870   20.5490 C.2   128  THR128      0.2287
     64  O         18.8990   27.2660   21.7560 O.2   128  THR128     -0.2866
     65  CB        18.2490   28.7400   18.8580 C.3   128  THR128      0.1770
     66  OG1       17.7670   27.5430   18.3500 O.3   128  THR128     -0.2211
     67  CG2       18.6900   29.6090   17.6890 C.3   128  THR128      0.0375
     68  N         26.9660   34.8690   17.8260 N.3   154  LEU154     -0.1245
     69  CA        26.4730   35.3360   19.1310 C.3   154  LEU154      0.1561
     70  C         26.1560   34.2140   20.1290 C.2   154  LEU154      0.2260
     71  O         25.4050   33.2830   19.7900 O.2   154  LEU154     -0.2867
     72  CB        25.1340   35.9840   18.8210 C.3   154  LEU154      0.0270
     73  CG        24.7340   37.1440   19.6560 C.3   154  LEU154      0.0019
     74  CD1       23.2270   37.1880   19.5820 C.3   154  LEU154      0.0001
     75  CD2       25.2520   37.1040   21.0980 C.3   154  LEU154      0.0001
     76  N         24.1180   33.9960   23.3580 N.3   156  ARG156     -0.1245
     77  CA        23.0410   34.7450   24.0030 C.3   156  ARG156      0.1563
     78  C         23.1260   34.6130   25.5080 C.2   156  ARG156      0.2260
     79  O         22.7290   35.4860   26.2900 O.2   156  ARG156     -0.2867
     80  CB        21.6690   34.3670   23.4260 C.3   156  ARG156      0.0307
     81  CG        21.3630   35.0400   22.0710 C.3   156  ARG156      0.0489
     82  CD        19.9730   34.7450   21.4580 C.3   156  ARG156      0.2205
     83  NE        18.8750   35.0580   22.3580 N.pl3 156  ARG156     -0.0865
     84  CZ        18.1900   36.1920   22.3680 C.cat 156  ARG156      0.5346
     85  NH1       18.4030   37.1720   21.4600 N.pl3 156  ARG156      0.1354
     86  NH2       17.2840   36.3480   23.3380 N.pl3 156  ARG156      0.1354
@<TRIPOS>BOND
     1    53    51   am
     2    52    51    2
     3    51    50    1
     4    49    48    2
     5    48    47    1
     6    50    47    1
     7    47    46    1
     8    46    37   am
     9    43    45   ar
    10    43    41   ar
    11    54    55    1
    12    45    44   ar
    13    37    38    2
    14    37    36    1
    15    33    31   ar
    16    33    34   ar
    17    41    40   ar
    18    17    16    1
    19    44    42   ar
    20    31    29   ar
    21    57    56    2
    22    58    55    1
    23    58    60    1
    24    58    59    1
    25    16    15    1
    26    34    32   ar
    27    55    56    1
    28    40    42   ar
    29    40    39    1
    30    36    39    1
    31    36    35    1
    32    35    26   am
    33    29    28    1
    34    29    30   ar
    35    27    26    2
    36    15    14    1
    37    32    30   ar
    38    26    25    1
    39    28    25    1
    40    14    13    1
    41    67    65    1
    42    68    69    1
    43    25    24    1
    44    66    65    1
    45    13    10    1
    46    72    69    1
    47    72    73    1
    48    65    62    1
    49    61    62    1
    50    69    70    1
    51    10     9    1
    52    10    11    1
    53     9     3   am
    54    74    73    1
    55    73    75    1
    56    62    63    1
    57    71    70    2
    58     3     4    2
    59     3     2    1
    60    12    11    2
    61     2     1    1
    62     2     5    1
    63    11    18   am
    64    63    64    2
    65     8     6    1
    66    82    81    1
    67    82    83    1
    68    85    84    1
    69    18    19    1
    70     5     6    1
    71     6     7    1
    72    81    80    1
    73    83    84    2
    74    84    86    1
    75    19    20    1
    76    19    22    1
    77    76    77    1
    78    80    77    1
    79    20    21    2
    80    22    23    1
    81    77    78    1
    82    78    79    2
