@<TRIPOS>MOLECULE
tmp/1oprA01.pdb
 111 108 0 0 0
SMALL
GASTEIGER

@<TRIPOS>ATOM
      1  N         12.1610   31.2080   19.5040 N.3    26  LYS26      -0.1245
      2  CA        11.6790   29.9010   19.2340 C.3    26  LYS26       0.1561
      3  C         11.2300   29.1890   20.5030 C.2    26  LYS26       0.2260
      4  O         10.4110   28.2990   20.4430 O.2    26  LYS26      -0.2867
      5  CB        12.8350   29.1070   18.6740 C.3    26  LYS26       0.0271
      6  CG        12.4970   28.2570   17.4630 C.3    26  LYS26       0.0035
      7  CD        13.7250   27.4760   16.9880 C.3    26  LYS26       0.0206
      8  CE        14.4010   28.0310   15.7210 C.3    26  LYS26       0.1093
      9  NZ        15.6890   27.3460   15.3900 N.3    26  LYS26      -0.1314
     10  N         24.6540   22.1930    6.9020 N.3    71  ALA71      -0.1231
     11  CA        23.3040   22.1950    6.3350 C.3    71  ALA71       0.1694
     12  C         23.3640   23.0830    5.1810 C.2    71  ALA71       0.2592
     13  O         24.2570   22.7760    4.4070 O.2    71  ALA71      -0.2718
     14  CB        22.1850   22.5020    7.3320 C.3    71  ALA71       0.0304
     15  N         22.6210   24.2110    5.2410 N.am   72  TYR72      -0.1962
     16  CA        22.6720   25.2590    4.2660 C.3    72  TYR72       0.1771
     17  C         23.2790   26.5170    4.7980 C.2    72  TYR72       0.2619
     18  O         24.1040   27.1610    4.1240 O.2    72  TYR72      -0.2715
     19  CB        21.3090   25.6060    3.6880 C.3    72  TYR72       0.0574
     20  CG        20.9450   24.6840    2.5640 C.ar   72  TYR72      -0.0198
     21  CD1       21.5090   24.8230    1.3020 C.ar   72  TYR72      -0.0009
     22  CD2       20.0600   23.6270    2.7710 C.ar   72  TYR72      -0.0009
     23  CE1       21.2210   23.9040    0.2880 C.ar   72  TYR72       0.0417
     24  CE2       19.7910   22.6700    1.7960 C.ar   72  TYR72       0.0417
     25  CZ        20.3780   22.8180    0.5410 C.ar   72  TYR72       0.1957
     26  OH        20.0710   21.9160   -0.4650 O.3    72  TYR72      -0.2866
     27  N         22.8330   26.9720    5.9580 N.am   73  LYS73      -0.1977
     28  CA        23.3790   28.2630    6.3810 C.3    73  LYS73       0.1596
     29  C         24.8630   28.4170    6.6140 C.2    73  LYS73       0.2287
     30  O         25.3550   29.5340    6.6340 O.2    73  LYS73      -0.2864
     31  CB        22.5160   29.1310    7.2610 C.3    73  LYS73       0.0298
     32  CG        21.6270   30.0080    6.4000 C.3    73  LYS73       0.0038
     33  CD        20.4350   30.5620    7.1590 C.3    73  LYS73       0.0206
     34  CE        19.1780   29.7060    7.0540 C.3    73  LYS73       0.1093
     35  NZ        18.5850   29.4240    8.3740 N.3    73  LYS73      -0.1314
     36  N         22.7410   18.1790    2.6510 N.3   100  LYS100     -0.1245
     37  CA        21.6440   17.8070    3.5380 C.3   100  LYS100      0.1561
     38  C         20.9410   16.5600    3.0390 C.2   100  LYS100      0.2260
     39  O         20.2760   15.8460    3.8090 O.2   100  LYS100     -0.2867
     40  CB        20.6330   18.9050    3.6610 C.3   100  LYS100      0.0271
     41  CG        20.6590   19.5250    5.0250 C.3   100  LYS100      0.0035
     42  CD        19.7030   20.6950    5.0690 C.3   100  LYS100      0.0206
     43  CE        19.2090   21.0580    6.4650 C.3   100  LYS100      0.1093
     44  NZ        18.0550   21.9710    6.4410 N.3   100  LYS100     -0.1314
     45  N         29.0420   28.1080   12.1340 N.3   124  ASP124     -0.1225
     46  CA        27.6380   28.3910   11.9600 C.3   124  ASP124      0.1805
     47  C         27.2750   29.8260   12.3780 C.2   124  ASP124      0.2598
     48  O         28.1380   30.6240   12.7950 O.2   124  ASP124     -0.2718
     49  CB        26.8260   27.3500   12.7390 C.3   124  ASP124      0.1424
     50  CG        25.7440   26.6900   11.8990 C.2   124  ASP124      0.3668
     51  OD1       25.5420   26.9630   10.7030 O.co2 124  ASP124     -0.2456
     52  OD2       24.9940   25.8420   12.6040 O.co2 124  ASP124     -0.2456
     53  N         26.0020   30.2170   12.2360 N.am  125  ASP125     -0.1960
     54  CA        25.6360   31.5700   12.6450 C.3   125  ASP125      0.1840
     55  C         25.2450   31.6920   14.0910 C.2   125  ASP125      0.2622
     56  O         25.7580   32.5190   14.8340 O.2   125  ASP125     -0.2715
     57  CB        24.5300   32.2300   11.8060 C.3   125  ASP125      0.1450
     58  CG        23.4210   31.3060   11.4240 C.2   125  ASP125      0.3671
     59  OD1       22.9620   30.5980   12.4390 O.co2 125  ASP125     -0.2456
     60  OD2       22.9750   31.2810   10.2870 O.co2 125  ASP125     -0.2456
     61  N         24.3090   30.8560   14.4810 N.am  126  VAL126     -0.1963
     62  CA        23.7880   30.9800   15.8000 C.3   126  VAL126      0.1727
     63  C         23.3410   29.6380   16.2980 C.2   126  VAL126      0.2616
     64  O         23.1980   28.7730   15.4820 O.2   126  VAL126     -0.2715
     65  CB        22.6000   31.8820   15.6700 C.3   126  VAL126      0.0290
     66  CG1       21.4780   31.2720   16.4880 C.3   126  VAL126      0.0023
     67  CG2       22.9510   33.3170   16.0420 C.3   126  VAL126      0.0023
     68  N         23.2370   29.4220   17.6210 N.am  127  ILE127     -0.1963
     69  CA        22.7900   28.1280   18.1550 C.3   127  ILE127      0.1727
     70  C         21.7540   28.4440   19.1820 C.2   127  ILE127      0.2617
     71  O         22.0400   29.1810   20.1270 O.2   127  ILE127     -0.2715
     72  CB        23.9060   27.3160   18.8110 C.3   127  ILE127      0.0290
     73  CG1       25.0210   27.0540   17.8400 C.3   127  ILE127      0.0022
     74  CG2       23.4380   25.9600   19.3290 C.3   127  ILE127      0.0023
     75  CD1       26.1910   26.4490   18.5800 C.3   127  ILE127      0.0001
     76  N         20.5380   28.0170   18.9170 N.am  128  THR128     -0.1937
     77  CA        19.4200   28.3630   19.7350 C.3   128  THR128      0.2028
     78  C         19.0490   27.1870   20.5490 C.2   128  THR128      0.2642
     79  O         18.8990   27.2660   21.7560 O.2   128  THR128     -0.2714
     80  CB        18.2490   28.7400   18.8580 C.3   128  THR128      0.1808
     81  OG1       17.7670   27.5430   18.3500 O.3   128  THR128     -0.2208
     82  CG2       18.6900   29.6090   17.6890 C.3   128  THR128      0.0379
     83  N         18.9740   26.0660   19.8750 N.am  129  ALA129     -0.1963
     84  CA        18.6960   24.8290   20.5440 C.3   129  ALA129      0.1728
     85  C         19.9350   23.9540   20.6810 C.2   129  ALA129      0.2617
     86  O         20.0150   23.1450   21.6150 O.2   129  ALA129     -0.2715
     87  CB        17.5510   24.0730   19.8800 C.3   129  ALA129      0.0334
     88  N         20.8900   24.0830   19.7480 N.am  130  GLY130     -0.1940
     89  CA        22.0870   23.2510   19.7660 C.3   130  GLY130      0.2014
     90  C         21.8220   21.8300   19.2220 C.2   130  GLY130      0.2640
     91  O         22.4940   20.8280   19.5370 O.2   130  GLY130     -0.2714
     92  N         20.8490   21.7350   18.3610 N.am  131  THR131     -0.1936
     93  CA        20.4900   20.4420   17.8740 C.3   131  THR131      0.2028
     94  C         20.9940   20.1880   16.4770 C.2   131  THR131      0.2642
     95  O         21.3500   19.0570   16.1010 O.2   131  THR131     -0.2714
     96  CB        18.9810   20.2610   18.0060 C.3   131  THR131      0.1808
     97  OG1       18.3530   21.5430   18.0910 O.3   131  THR131     -0.2208
     98  CG2       18.7520   19.4590   19.2940 C.3   131  THR131      0.0379
     99  N         21.1050   21.2720   15.7280 N.am  132  ALA132     -0.1963
    100  CA        21.5370   21.1570   14.3700 C.3   132  ALA132      0.1728
    101  C         22.9730   20.7090   14.2020 C.2   132  ALA132      0.2616
    102  O         23.3240   20.0800   13.2050 O.2   132  ALA132     -0.2715
    103  CB        21.1880   22.4150   13.6190 C.3   132  ALA132      0.0334
    104  N         23.8090   21.0060   15.1780 N.am  133  ILE133     -0.1977
    105  CA        25.1780   20.5270   15.1000 C.3   133  ILE133      0.1596
    106  C         25.2450   19.1250   15.6110 C.2   133  ILE133      0.2287
    107  O         26.1500   18.3890   15.2870 O.2   133  ILE133     -0.2864
    108  CB        26.1610   21.3110   15.9260 C.3   133  ILE133      0.0276
    109  CG1       25.5990   21.4740   17.3080 C.3   133  ILE133      0.0022
    110  CG2       26.5030   22.6670   15.2930 C.3   133  ILE133      0.0022
    111  CD1       25.2780   22.9310   17.5100 C.3   133  ILE133      0.0001
@<TRIPOS>BOND
     1    26    25    1
     2    23    25   ar
     3    23    21   ar
     4    25    24   ar
     5    21    20   ar
     6    24    22   ar
     7    20    22   ar
     8    20    19    1
     9    36    37    1
    10    38    37    1
    11    38    39    2
    12    37    40    1
    13    40    41    1
    14    19    16    1
    15    18    17    2
    16    16    17    1
    17    16    15    1
    18    13    12    2
    19    17    27   am
    20    41    42    1
    21    42    43    1
    22    12    15   am
    23    12    11    1
    24    27    28    1
    25    11    10    1
    26    11    14    1
    27    28    29    1
    28    28    31    1
    29    32    33    1
    30    32    31    1
    31    44    43    1
    32    29    30    2
    33    34    33    1
    34    34    35    1
    35    60    58   ar
    36    51    50   ar
    37    58    57    1
    38    58    59   ar
    39    57    54    1
    40    50    52   ar
    41    50    49    1
    42    46    45    1
    43    46    47    1
    44    46    49    1
    45    53    47   am
    46    53    54    1
    47    47    48    2
    48    54    55    1
    49   102   101    2
    50   103   100    1
    51    55    61   am
    52    55    56    2
    53   101   100    1
    54   101   104   am
    55   100    99    1
    56    61    62    1
    57   105   104    1
    58   105   106    1
    59   105   108    1
    60   107   106    2
    61   110   108    1
    62     9     8    1
    63    64    63    2
    64    65    62    1
    65    65    67    1
    66    65    66    1
    67     8     7    1
    68    99    94   am
    69    62    63    1
    70   108   109    1
    71    95    94    2
    72    63    68   am
    73    94    93    1
    74     7     6    1
    75   109   111    1
    76     6     5    1
    77    68    69    1
    78    82    80    1
    79    73    75    1
    80    73    72    1
    81    93    96    1
    82    93    92    1
    83    96    97    1
    84    96    98    1
    85    69    72    1
    86    69    70    1
    87    81    80    1
    88    92    90   am
    89     5     2    1
    90    72    74    1
    91    80    77    1
    92    76    70   am
    93    76    77    1
    94    70    71    2
    95    90    91    2
    96    90    89    1
    97     2     1    1
    98     2     3    1
    99    77    78    1
   100    88    89    1
   101    88    85   am
   102    83    84    1
   103    83    78   am
   104    87    84    1
   105     4     3    2
   106    84    85    1
   107    78    79    2
   108    85    86    2
