@<TRIPOS>MOLECULE
tmp/1oq5A00.pdb
 189 180 0 0 0
SMALL
GASTEIGER

@<TRIPOS>ATOM
      1  N         12.3190    3.8010    1.9950 N.3    57  LEU57      -0.1245
      2  CA        13.7390    3.8820    1.7280 C.3    57  LEU57       0.1561
      3  C         14.4970    2.6910    2.3210 C.2    57  LEU57       0.2260
      4  O         14.2610    2.3260    3.4760 O.2    57  LEU57      -0.2867
      5  CB        14.3440    5.1550    2.3280 C.3    57  LEU57       0.0270
      6  CG        15.8550    5.3270    2.3010 C.3    57  LEU57       0.0019
      7  CD1       16.3090    5.5890    0.8760 C.3    57  LEU57       0.0001
      8  CD2       16.3290    6.4630    3.2260 C.3    57  LEU57       0.0001
      9  N         17.9310    2.0490    3.5870 N.3    59  ASN59      -0.1240
     10  CA        19.1000    2.8590    3.9930 C.3    59  ASN59       0.1653
     11  C         20.3320    2.0170    4.3000 C.2    59  ASN59       0.2266
     12  O         21.2940    2.5120    4.8970 O.2    59  ASN59      -0.2867
     13  CB        18.6960    3.7320    5.1750 C.3    59  ASN59       0.1155
     14  CG        18.5300    2.9130    6.4340 C.2    59  ASN59       0.2627
     15  OD1       18.5640    1.6850    6.4210 O.2    59  ASN59      -0.2716
     16  ND2       18.3780    3.6800    7.5010 N.am   59  ASN59      -0.0877
     17  N         12.5860    1.8800    5.6670 N.3    64  ASN64      -0.1240
     18  CA        11.9240    2.8910    6.4600 C.3    64  ASN64       0.1653
     19  C         10.8020    3.5710    5.6920 C.2    64  ASN64       0.2266
     20  O         11.0390    4.1060    4.6050 O.2    64  ASN64      -0.2867
     21  CB        12.9440    3.9470    6.8860 C.3    64  ASN64       0.1155
     22  CG        14.1700    3.3130    7.5290 C.2    64  ASN64       0.2627
     23  OD1       14.1730    3.1860    8.7350 O.2    64  ASN64      -0.2716
     24  ND2       15.1920    2.9420    6.7560 N.am   64  ASN64      -0.0877
     25  N          8.6110    6.6630    5.7230 N.3    66  GLU66      -0.1245
     26  CA         8.7020    8.0320    6.2090 C.3    66  GLU66       0.1567
     27  C          7.3780    8.7540    6.0070 C.2    66  GLU66       0.2260
     28  O          6.7420    8.5540    4.9490 O.2    66  GLU66      -0.2867
     29  CB         9.8560    8.7510    5.4790 C.3    66  GLU66       0.0388
     30  CG        11.1430    8.0020    5.7840 C.3    66  GLU66       0.1160
     31  CD        12.3920    8.4410    5.0680 C.2    66  GLU66       0.3649
     32  OE1       12.3900    8.5060    3.8180 O.co2  66  GLU66      -0.2457
     33  OE2       13.3900    8.6900    5.7730 O.co2  66  GLU66      -0.2457
     34  N          7.2220   10.0230   12.7430 N.3    88  ILE88      -0.1231
     35  CA         8.0870   10.4270   11.6550 C.3    88  ILE88       0.1692
     36  C          8.4140    9.2600   10.7300 C.2    88  ILE88       0.2591
     37  O          8.5230    9.4830    9.5140 O.2    88  ILE88      -0.2718
     38  CB         9.3750   11.0830   12.1670 C.3    88  ILE88       0.0266
     39  CG1       10.2720   11.4610   10.9890 C.3    88  ILE88       0.0019
     40  CG2       10.0850   10.2370   13.1910 C.3    88  ILE88       0.0020
     41  CD1       11.3990   12.3940   11.3720 C.3    88  ILE88       0.0001
     42  N          8.5250    8.0540   11.2870 N.am   89  GLN89      -0.1979
     43  CA         8.8410    6.9360   10.4240 C.3    89  GLN89       0.1601
     44  C          8.5690    5.6310   11.1660 C.2    89  GLN89       0.2287
     45  O          8.5570    5.6230   12.3890 O.2    89  GLN89      -0.2864
     46  CB        10.2870    6.9290    9.9350 C.3    89  GLN89       0.0394
     47  CG        11.3740    7.0210   10.9930 C.3    89  GLN89       0.0908
     48  CD        12.1280    5.7430   11.2660 C.2    89  GLN89       0.2608
     49  OE1       11.5350    4.6690   11.2290 O.2    89  GLN89      -0.2717
     50  NE2       13.4060    5.8220   11.5750 N.am   89  GLN89      -0.0878
     51  N         10.0570    1.4220   10.9000 N.3    91  HIS91      -0.1241
     52  CA        10.9170    0.4420   10.2810 C.3    91  HIS91       0.1621
     53  C         10.8010   -0.8420   11.1210 C.2    91  HIS91       0.2264
     54  O         10.1260   -0.8480   12.1360 O.2    91  HIS91      -0.2867
     55  CB        12.3830    0.8900   10.1730 C.3    91  HIS91       0.0745
     56  CG        12.8860    1.1610   11.5660 C.ar   91  HIS91       0.0817
     57  ND1       12.6690    2.3670   12.1910 N.ar   91  HIS91      -0.2268
     58  CD2       13.5570    0.3810   12.4550 C.ar   91  HIS91       0.1154
     59  CE1       13.1980    2.3090   13.3930 C.ar   91  HIS91       0.1986
     60  NE2       13.7470    1.1100   13.5950 N.ar   91  HIS91      -0.2212
     61  N         13.2140   -4.4960   12.3340 N.3    93  HIS93      -0.1241
     62  CA        14.3740   -5.3220   12.5300 C.3    93  HIS93       0.1621
     63  C         13.9030   -6.7720   12.4070 C.2    93  HIS93       0.2264
     64  O         12.8200   -7.0950   12.9220 O.2    93  HIS93      -0.2867
     65  CB        15.0130   -5.0700   13.8940 C.3    93  HIS93       0.0745
     66  CG        15.3060   -3.6260   14.1470 C.ar   93  HIS93       0.0817
     67  ND1       16.5100   -3.0390   13.8940 N.ar   93  HIS93      -0.2268
     68  CD2       14.5160   -2.6290   14.6140 C.ar   93  HIS93       0.1154
     69  CE1       16.4590   -1.7380   14.2170 C.ar   93  HIS93       0.1986
     70  NE2       15.2380   -1.4660   14.6500 N.ar   93  HIS93      -0.2212
     71  N          9.2580   -0.7940   14.7960 N.3   116  HIS116     -0.1241
     72  CA         9.4740    0.4510   15.5000 C.3   116  HIS116      0.1621
     73  C          8.7730    1.6260   14.8170 C.2   116  HIS116      0.2264
     74  O          9.1100    1.9190   13.6840 O.2   116  HIS116     -0.2867
     75  CB        10.9700    0.7630   15.5940 C.3   116  HIS116      0.0745
     76  CG        11.6690   -0.2040   16.4880 C.ar  116  HIS116      0.0817
     77  ND1       12.9940   -0.4580   16.5120 N.ar  116  HIS116     -0.2268
     78  CD2       11.1060   -1.0170   17.4270 C.ar  116  HIS116      0.1154
     79  CE1       13.2930   -1.3630   17.4030 C.ar  116  HIS116      0.1986
     80  NE2       12.1500   -1.7380   18.0030 N.ar  116  HIS116     -0.2212
     81  N          8.4180    5.3690   15.1820 N.3   118  VAL118     -0.1245
     82  CA         9.2650    6.3630   15.7930 C.3   118  VAL118      0.1561
     83  C          8.5550    7.7170   15.8330 C.2   118  VAL118      0.2260
     84  O          8.1200    8.1980   14.7940 O.2   118  VAL118     -0.2867
     85  CB        10.6030    6.4380   15.0440 C.3   118  VAL118      0.0252
     86  CG1       11.5540    7.3930   15.7840 C.3   118  VAL118      0.0019
     87  CG2       11.2750    5.0850   14.9170 C.3   118  VAL118      0.0019
     88  N         12.7810   16.6100   14.7780 N.3   127  PHE127     -0.1227
     89  CA        13.3870   15.3680   15.2230 C.3   127  PHE127      0.1736
     90  C         14.8450   15.5260   15.6270 C.2   127  PHE127      0.2596
     91  O         15.3120   14.9220   16.5830 O.2   127  PHE127     -0.2718
     92  CB        13.2680   14.3860   14.0540 C.3   127  PHE127      0.0547
     93  CG        13.9190   13.0480   14.2570 C.ar  127  PHE127     -0.0202
     94  CD1       13.2470   12.0470   14.9090 C.ar  127  PHE127     -0.0042
     95  CD2       15.2080   12.8330   13.7890 C.ar  127  PHE127     -0.0042
     96  CE1       13.8680   10.8270   15.1200 C.ar  127  PHE127     -0.0003
     97  CE2       15.7800   11.6260   13.9980 C.ar  127  PHE127     -0.0003
     98  CZ        15.1280   10.6070   14.6450 C.ar  127  PHE127     -0.0000
     99  N         15.5870   16.3080   14.8120 N.am  128  GLY128     -0.1957
    100  CA        17.0180   16.4020   15.1130 C.3   128  GLY128      0.1869
    101  C         17.3100   17.0260   16.4500 C.2   128  GLY128      0.2309
    102  O         18.2830   16.6960   17.1130 O.2   128  GLY128     -0.2863
    103  N         16.2750   14.3770   19.3630 N.3   131  VAL131     -0.1245
    104  CA        17.1530   13.2640   19.7210 C.3   131  VAL131      0.1561
    105  C         18.2290   13.6990   20.7040 C.2   131  VAL131      0.2260
    106  O         18.9160   12.8310   21.2710 O.2   131  VAL131     -0.2867
    107  CB        17.7960   12.5620   18.5160 C.3   131  VAL131      0.0252
    108  CG1       16.7040   11.9130   17.6520 C.3   131  VAL131      0.0019
    109  CG2       18.6480   13.4780   17.6640 C.3   131  VAL131      0.0019
    110  N         12.1700   11.2920   22.2090 N.3   137  LEU137     -0.1245
    111  CA        11.5200   10.3470   21.2980 C.3   137  LEU137      0.1561
    112  C         10.6340    9.3960   22.1030 C.2   137  LEU137      0.2260
    113  O         10.9190    9.1640   23.2640 O.2   137  LEU137     -0.2867
    114  CB        12.4960    9.5360   20.4910 C.3   137  LEU137      0.0270
    115  CG        13.4390   10.2100   19.5070 C.3   137  LEU137      0.0019
    116  CD1       14.1190    9.1380   18.6160 C.3   137  LEU137      0.0001
    117  CD2       12.7830   11.2700   18.6950 C.3   137  LEU137      0.0001
    118  N          9.2880    5.5350   21.0710 N.3   139  VAL139     -0.1245
    119  CA         9.2360    4.5040   20.0570 C.3   139  VAL139      0.1561
    120  C          8.2820    3.4050   20.5250 C.2   139  VAL139      0.2260
    121  O          8.4790    2.8770   21.6350 O.2   139  VAL139     -0.2867
    122  CB        10.6070    3.9280   19.6970 C.3   139  VAL139      0.0252
    123  CG1       10.4700    2.9010   18.5780 C.3   139  VAL139      0.0019
    124  CG2       11.4690    5.0930   19.2420 C.3   139  VAL139      0.0019
    125  N         18.1650    4.9170   21.2100 N.3   194  LEU194     -0.1231
    126  CA        18.1420    4.4100   19.8560 C.3   194  LEU194      0.1693
    127  C         18.8620    3.0610   19.8600 C.2   194  LEU194      0.2593
    128  O         19.8790    2.9200   20.5620 O.2   194  LEU194     -0.2718
    129  CB        18.8540    5.3590   18.8910 C.3   194  LEU194      0.0284
    130  CG        18.3530    6.8150   18.8630 C.3   194  LEU194      0.0019
    131  CD1       19.2910    7.6520   18.0020 C.3   194  LEU194      0.0001
    132  CD2       16.9140    6.8550   18.4270 C.3   194  LEU194      0.0001
    133  N         18.3880    2.1190   19.0530 N.am  195  THR195     -0.1939
    134  CA        19.0540    0.8320   19.0210 C.3   195  THR195      0.2028
    135  C         20.0860    0.6990   17.8960 C.2   195  THR195      0.2643
    136  O         20.6650   -0.3700   17.7280 O.2   195  THR195     -0.2714
    137  CB        18.0610   -0.3290   18.8940 C.3   195  THR195      0.1808
    138  OG1       17.4640   -0.2240   17.5790 O.3   195  THR195     -0.2208
    139  CG2       16.9740   -0.2970   19.9480 C.3   195  THR195      0.0379
    140  N         20.3000    1.7530   17.1420 N.am  196  THR196     -0.1937
    141  CA        21.3980    1.8240   16.1890 C.3   196  THR196      0.2013
    142  C         22.2070    3.0840   16.4670 C.2   196  THR196      0.2484
    143  O         21.6860    3.9950   17.1170 O.2   196  THR196     -0.2729
    144  CB        20.9350    1.9410   14.7280 C.3   196  THR196      0.1807
    145  OG1       20.2540    3.2030   14.5120 O.3   196  THR196     -0.2208
    146  CG2       19.9610    0.8600   14.3320 C.3   196  THR196      0.0379
    147  N         23.4330    3.1260   15.9720 N.am  197  PRO197     -0.2715
    148  CA        24.1790    4.3980   16.0510 C.3   197  PRO197      0.1521
    149  C         23.3240    5.5370   15.5250 C.2   197  PRO197      0.2440
    150  O         22.5590    5.3150   14.5860 O.2   197  PRO197     -0.2731
    151  CB        25.3740    4.1280   15.1600 C.3   197  PRO197      0.0310
    152  CG        25.5920    2.6420   15.2840 C.3   197  PRO197      0.0237
    153  CD        24.1970    2.0490   15.3550 C.3   197  PRO197      0.0939
    154  N         23.3510    6.7170   16.1360 N.am  198  PRO198     -0.2727
    155  CA        24.2630    7.0860   17.2090 C.3   198  PRO198      0.1402
    156  C         23.9110    6.6460   18.6320 C.2   198  PRO198      0.2269
    157  O         24.5670    7.0960   19.5940 O.2   198  PRO198     -0.2865
    158  CB        24.2300    8.6250   17.0970 C.3   198  PRO198      0.0296
    159  CG        22.8660    8.9560   16.5920 C.3   198  PRO198      0.0237
    160  CD        22.4660    7.8270   15.7100 C.3   198  PRO198      0.0939
    161  N         21.7590    7.2990   20.8220 N.3   200  LEU200     -0.1245
    162  CA        21.4530    8.3930   21.7290 C.3   200  LEU200      0.1561
    163  C         20.3880    7.9840   22.7580 C.2   200  LEU200      0.2260
    164  O         19.4720    7.2400   22.4020 O.2   200  LEU200     -0.2867
    165  CB        20.9960    9.6390   20.9630 C.3   200  LEU200      0.0270
    166  CG        22.0670   10.2790   20.0880 C.3   200  LEU200      0.0019
    167  CD1       21.4960   11.3560   19.2040 C.3   200  LEU200      0.0001
    168  CD2       23.1990   10.8440   20.9470 C.3   200  LEU200      0.0001
    169  N         15.1250    7.9960   24.2520 N.3   203  VAL203     -0.1245
    170  CA        13.8610    7.3260   23.9160 C.3   203  VAL203      0.1561
    171  C         13.0610    6.8610   25.1180 C.2   203  VAL203      0.2260
    172  O         13.6120    6.1520   25.9930 O.2   203  VAL203     -0.2867
    173  CB        14.1520    6.0890   23.0310 C.3   203  VAL203      0.0252
    174  CG1       12.8550    5.3760   22.6600 C.3   203  VAL203      0.0019
    175  CG2       14.8960    6.5060   21.7670 C.3   203  VAL203      0.0019
    176  N         10.6860    4.0630   25.6020 N.3   205  TRP205     -0.1241
    177  CA        10.2430    2.8650   24.9060 C.3   205  TRP205      0.1605
    178  C          8.8680    2.4550   25.4030 C.2   205  TRP205      0.2264
    179  O          8.6430    2.3810   26.6310 O.2   205  TRP205     -0.2867
    180  CB        11.2560    1.7100   25.1420 C.3   205  TRP205      0.0550
    181  CG        12.3250    1.8550   24.1050 C.ar  205  TRP205      0.0003
    182  CD1       13.5720    2.4160   24.2570 C.ar  205  TRP205      0.0946
    183  CD2       12.2820    1.4570   22.7350 C.ar  205  TRP205      0.0152
    184  NE1       14.2980    2.3940   23.0990 N.ar  205  TRP205     -0.2442
    185  CE2       13.5220    1.8050   22.1400 C.ar  205  TRP205      0.0810
    186  CE3       11.3030    0.8340   21.9430 C.ar  205  TRP205      0.0012
    187  CZ2       13.7920    1.5440   20.8070 C.ar  205  TRP205      0.0191
    188  CZ3       11.6030    0.5860   20.6180 C.ar  205  TRP205      0.0001
    189  CH2       12.8340    0.9380   20.0450 C.ar  205  TRP205      0.0015
@<TRIPOS>BOND
     1     7     6    1
     2     2     1    1
     3     2     3    1
     4     2     5    1
     5     6     5    1
     6     6     8    1
     7     3     4    2
     8     9    10    1
     9    32    31   ar
    10    10    11    1
    11    10    13    1
    12    11    12    2
    13    20    19    2
    14    28    27    2
    15    31    33   ar
    16    31    30    1
    17    13    14    1
    18    29    30    1
    19    29    26    1
    20    17    18    1
    21    19    18    1
    22    25    26    1
    23    27    26    1
    24    15    14    2
    25    14    16   am
    26    18    21    1
    27    24    22   am
    28    21    22    1
    29    22    23    2
    30    37    36    2
    31    46    43    1
    32    46    47    1
    33    55    52    1
    34    55    56    1
    35    52    51    1
    36    52    53    1
    37    43    44    1
    38    43    42    1
    39    36    42   am
    40    36    35    1
    41    39    41    1
    42    39    38    1
    43    47    48    1
    44    53    54    2
    45    44    45    2
    46    49    48    2
    47    48    50   am
    48    56    57   ar
    49    56    58   ar
    50    35    38    1
    51    35    34    1
    52    38    40    1
    53    57    59   ar
    54    61    62    1
    55    63    62    1
    56    63    64    2
    57    58    60   ar
    58    62    65    1
    59    59    60   ar
    60    74    73    2
    61    95    97   ar
    62    95    93   ar
    63    67    66   ar
    64    67    69   ar
    65    65    66    1
    66    97    98   ar
    67    92    93    1
    68    92    89    1
    69    66    68   ar
    70    69    70   ar
    71    93    94   ar
    72   146   144    1
    73   145   144    1
    74   150   149    2
    75    68    70   ar
    76    98    96   ar
    77   144   141    1
    78    88    89    1
    79    84    83    2
    80    71    72    1
    81    99   100    1
    82    99    90   am
    83    73    72    1
    84    94    96   ar
    85    87    85    1
    86    85    86    1
    87    85    82    1
    88   100   101    1
    89   151   152    1
    90   151   148    1
    91    81    82    1
    92    89    90    1
    93   152   153    1
    94   153   147    1
    95    72    75    1
    96   149   148    1
    97   149   154   am
    98    75    76    1
    99    90    91    2
   100   160   154    1
   101   160   159    1
   102    82    83    1
   103   147   148    1
   104   147   142   am
   105   154   155    1
   106   141   142    1
   107   141   140    1
   108   101   102    2
   109   142   143    2
   110    76    77   ar
   111    76    78   ar
   112    77    79   ar
   113   159   158    1
   114   158   155    1
   115   140   135   am
   116   155   156    1
   117    79    80   ar
   118    78    80   ar
   119   138   137    1
   120   108   107    1
   121   109   107    1
   122   136   135    2
   123   135   134    1
   124   131   130    1
   125   132   130    1
   126   107   104    1
   127   123   122    1
   128   116   115    1
   129   156   157    2
   130   117   115    1
   131   130   129    1
   132   129   126    1
   133   137   134    1
   134   137   139    1
   135   134   133    1
   136   133   127   am
   137   167   166    1
   138   124   122    1
   139   103   104    1
   140   115   114    1
   141   122   119    1
   142   104   105    1
   143   126   127    1
   144   126   125    1
   145   127   128    2
   146   189   188   ar
   147   189   187   ar
   148   119   120    1
   149   119   118    1
   150   166   168    1
   151   166   165    1
   152   114   111    1
   153   120   121    2
   154   188   186   ar
   155   105   106    2
   156   187   185   ar
   157   161   162    1
   158   165   162    1
   159   111   112    1
   160   111   110    1
   161   162   163    1
   162   175   173    1
   163   186   183   ar
   164   112   113    2
   165   185   183   ar
   166   185   184   ar
   167   164   163    2
   168   174   173    1
   169   183   181   ar
   170   173   170    1
   171   184   182   ar
   172   170   169    1
   173   170   171    1
   174   181   182   ar
   175   181   180    1
   176   177   180    1
   177   177   178    1
   178   177   176    1
   179   171   172    2
   180   178   179    2
