@<TRIPOS>MOLECULE
tmp/1oqmB00.pdb
 248 243 0 0 0
SMALL
GASTEIGER

@<TRIPOS>ATOM
      1  N          3.3470   -0.8020   35.7610 N.3    57  PRO57      -0.2102
      2  CA         2.7860   -2.1590   35.7020 C.3    57  PRO57       0.1504
      3  C          3.9570   -3.0590   36.0500 C.2    57  PRO57       0.2576
      4  O          5.0870   -2.8090   35.6370 O.2    57  PRO57      -0.2718
      5  CB         2.2980   -2.2950   34.2580 C.3    57  PRO57       0.0282
      6  CG         3.2200   -1.3690   33.4890 C.3    57  PRO57       0.0208
      7  CD         3.5060   -0.2120   34.4150 C.3    57  PRO57       0.0893
      8  N          3.6980   -4.1200   36.7910 N.am   58  PHE58      -0.1963
      9  CA         4.8100   -4.9120   37.2400 C.3    58  PHE58       0.1771
     10  C          4.5400   -6.3770   37.5190 C.2    58  PHE58       0.2619
     11  O          3.4590   -6.7690   38.0020 O.2    58  PHE58      -0.2715
     12  CB         5.3330   -4.2250   38.5070 C.3    58  PHE58       0.0574
     13  CG         6.4790   -4.9310   39.1920 C.ar   58  PHE58      -0.0200
     14  CD1        7.7890   -4.4620   39.0460 C.ar   58  PHE58      -0.0042
     15  CD2        6.2450   -6.0100   40.0480 C.ar   58  PHE58      -0.0042
     16  CE1        8.8470   -5.0490   39.7430 C.ar   58  PHE58      -0.0003
     17  CE2        7.3030   -6.6110   40.7560 C.ar   58  PHE58      -0.0003
     18  CZ         8.6090   -6.1270   40.6010 C.ar   58  PHE58      -0.0000
     19  N          5.5540   -7.1680   37.1940 N.am   59  ARG59      -0.1963
     20  CA         5.5930   -8.5890   37.4760 C.3    59  ARG59       0.1729
     21  C          6.9930   -9.0920   37.1880 C.2    59  ARG59       0.2616
     22  O          7.4480   -9.0680   36.0460 O.2    59  ARG59      -0.2715
     23  CB         4.6120   -9.4180   36.6510 C.3    59  ARG59       0.0348
     24  CG         4.7830  -10.9320   36.9670 C.3    59  ARG59       0.0492
     25  CD         4.3260  -11.8100   35.8090 C.3    59  ARG59       0.2205
     26  NE         2.9840  -12.2710   36.0410 N.pl3  59  ARG59      -0.0865
     27  CZ         2.1860  -12.7420   35.1020 C.cat  59  ARG59       0.5346
     28  NH1        2.5970  -12.8070   33.8400 N.pl3  59  ARG59       0.1354
     29  NH2        0.9780  -13.1660   35.4450 N.pl3  59  ARG59       0.1354
     30  N          7.6780   -9.5340   38.2390 N.am   60  ASN60      -0.1958
     31  CA         9.0180  -10.0820   38.1030 C.3    60  ASN60       0.1819
     32  C         10.0260   -9.1470   37.4060 C.2    60  ASN60       0.2621
     33  O         10.7800   -9.5720   36.5340 O.2    60  ASN60      -0.2715
     34  CB         8.9340  -11.4140   37.3600 C.3    60  ASN60       0.1195
     35  CG        10.2250  -12.2040   37.4430 C.2    60  ASN60       0.2630
     36  OD1       10.8730  -12.2400   38.5000 O.2    60  ASN60      -0.2716
     37  ND2       10.6130  -12.8490   36.3350 N.am   60  ASN60      -0.0877
     38  N         10.0450   -7.8760   37.7950 N.am   61  ARG61      -0.1977
     39  CA        10.9960   -6.9380   37.2030 C.3    61  ARG61       0.1597
     40  C         11.7180   -6.1620   38.2930 C.2    61  ARG61       0.2287
     41  O         11.9440   -4.9510   38.1730 O.2    61  ARG61      -0.2864
     42  CB        10.2820   -5.9660   36.2590 C.3    61  ARG61       0.0334
     43  CG         9.7870   -6.5970   34.9710 C.3    61  ARG61       0.0492
     44  CD        10.9160   -7.1280   34.1080 C.3    61  ARG61       0.2205
     45  NE        10.4740   -7.3930   32.7380 N.pl3  61  ARG61      -0.0865
     46  CZ        10.3950   -6.4690   31.7740 C.cat  61  ARG61       0.5346
     47  NH1       10.7330   -5.2070   32.0100 N.pl3  61  ARG61       0.1354
     48  NH2        9.9650   -6.8040   30.5620 N.pl3  61  ARG61       0.1354
     49  N         -0.0600  -11.5830   31.2440 N.3    96  PHE96      -0.1241
     50  CA         0.1670  -10.2620   31.8090 C.3    96  PHE96       0.1605
     51  C         -0.8480   -9.2790   31.2190 C.2    96  PHE96       0.2264
     52  O         -1.2100   -9.3700   30.0360 O.2    96  PHE96      -0.2867
     53  CB         1.5780   -9.7850   31.4870 C.3    96  PHE96       0.0534
     54  CG         2.0190   -8.6000   32.3060 C.ar   96  PHE96      -0.0203
     55  CD1        2.2770   -8.7340   33.6720 C.ar   96  PHE96      -0.0042
     56  CD2        2.1910   -7.3430   31.7110 C.ar   96  PHE96      -0.0042
     57  CE1        2.7100   -7.6280   34.4390 C.ar   96  PHE96      -0.0003
     58  CE2        2.6200   -6.2350   32.4720 C.ar   96  PHE96      -0.0003
     59  CZ         2.8800   -6.3840   33.8350 C.ar   96  PHE96      -0.0000
     60  N         -0.9310   -5.3460   31.2050 N.3    98  ARG98      -0.1245
     61  CA        -0.4150   -3.9960   31.4660 C.3    98  ARG98       0.1563
     62  C         -1.4480   -2.9090   31.7300 C.2    98  ARG98       0.2260
     63  O         -1.3830   -2.2370   32.7540 O.2    98  ARG98      -0.2867
     64  CB         0.4830   -3.5320   30.3020 C.3    98  ARG98       0.0307
     65  CG         1.0600   -2.1090   30.4670 C.3    98  ARG98       0.0489
     66  CD         1.9370   -1.7180   29.2710 C.3    98  ARG98       0.2205
     67  NE         2.5800   -0.4240   29.4550 N.pl3  98  ARG98      -0.0865
     68  CZ         2.1510    0.7340   28.9580 C.cat  98  ARG98       0.5346
     69  NH1        1.0550    0.8020   28.2110 N.pl3  98  ARG98       0.1354
     70  NH2        2.8350    1.8410   29.2340 N.pl3  98  ARG98       0.1354
     71  N          6.4220    2.2730   31.9550 N.3   122  ASP122     -0.1225
     72  CA         6.9640    0.9280   31.9510 C.3   122  ASP122      0.1805
     73  C          8.1030    0.9820   32.9980 C.2   122  ASP122      0.2598
     74  O          8.7240    2.0360   33.2000 O.2   122  ASP122     -0.2718
     75  CB         7.5370    0.5930   30.5840 C.3   122  ASP122      0.1424
     76  CG         6.4710    0.2960   29.5610 C.2   122  ASP122      0.3668
     77  OD1        5.2640    0.3070   29.8850 O.co2 122  ASP122     -0.2456
     78  OD2        6.8570    0.0400   28.4180 O.co2 122  ASP122     -0.2456
     79  N          8.3370   -0.1430   33.6660 N.am  123  VAL123     -0.1966
     80  CA         9.3670   -0.2630   34.7010 C.3   123  VAL123      0.1727
     81  C         10.7820   -0.0990   34.1540 C.2   123  VAL123      0.2616
     82  O         11.7210    0.1400   34.9090 O.2   123  VAL123     -0.2715
     83  CB         9.2830   -1.6700   35.3870 C.3   123  VAL123      0.0290
     84  CG1        9.7100   -2.7460   34.3940 C.3   123  VAL123      0.0023
     85  CG2       10.1720   -1.7330   36.6280 C.3   123  VAL123      0.0023
     86  N         10.9420   -0.2140   32.8360 N.am  124  ASP124     -0.1957
     87  CA        12.2780   -0.1540   32.2450 C.3   124  ASP124      0.1840
     88  C         12.6710    1.0660   31.4100 C.2   124  ASP124      0.2621
     89  O         13.6740    1.0210   30.6880 O.2   124  ASP124     -0.2715
     90  CB        12.5000   -1.4100   31.3960 C.3   124  ASP124      0.1450
     91  CG        11.5200   -1.5090   30.2640 C.2   124  ASP124      0.3671
     92  OD1       10.8680   -0.4800   29.9630 O.co2 124  ASP124     -0.2456
     93  OD2       11.4010   -2.6060   29.6770 O.co2 124  ASP124     -0.2456
     94  N         11.9040    2.1450   31.4980 N.am  125  LEU125     -0.1977
     95  CA        12.2290    3.3400   30.7340 C.3   125  LEU125      0.1596
     96  C         12.7830    4.4470   31.6100 C.2   125  LEU125      0.2287
     97  O         12.1990    4.8100   32.6290 O.2   125  LEU125     -0.2864
     98  CB        10.9960    3.8500   29.9890 C.3   125  LEU125      0.0297
     99  CG        10.6570    3.0070   28.7710 C.3   125  LEU125      0.0022
    100  CD1        9.2600    3.3800   28.2490 C.3   125  LEU125      0.0001
    101  CD2       11.7490    3.1890   27.7180 C.3   125  LEU125      0.0001
    102  N         13.0230    6.7790   22.0730 N.3   147  MET147     -0.1245
    103  CA        13.6430    5.6700   22.7800 C.3   147  MET147      0.1570
    104  C         14.8280    5.0720   22.0220 C.2   147  MET147      0.2261
    105  O         14.7420    4.7990   20.8140 O.2   147  MET147     -0.2867
    106  CB        12.5830    4.5890   23.0460 C.3   147  MET147      0.0387
    107  CG        11.5170    4.9920   24.0800 C.3   147  MET147      0.0595
    108  SD        10.0350    3.9370   24.0170 S.3   147  MET147     -0.1393
    109  CE        10.7520    2.4740   23.4230 C.3   147  MET147      0.0692
    110  N         15.7760    2.2660   21.8820 N.3   149  LYS149     -0.1231
    111  CA        15.3060    0.9950   21.3190 C.3   149  LYS149      0.1693
    112  C         14.7860    1.1760   19.8790 C.2   149  LYS149      0.2592
    113  O         14.9450    0.2920   19.0280 O.2   149  LYS149     -0.2718
    114  CB        14.1780    0.4510   22.2080 C.3   149  LYS149      0.0285
    115  CG        13.2760   -0.6220   21.5850 C.3   149  LYS149      0.0035
    116  CD        11.9840   -0.7580   22.3980 C.3   149  LYS149      0.0206
    117  CE        11.1230   -1.9440   21.9470 C.3   149  LYS149      0.1093
    118  NZ        11.5240   -3.2780   22.5260 N.3   149  LYS149     -0.1314
    119  N         14.1450    2.3150   19.6160 N.am  150  PHE150     -0.1976
    120  CA        13.6170    2.6080   18.2890 C.3   150  PHE150      0.1639
    121  C         14.5650    3.5770   17.5960 C.2   150  PHE150      0.2290
    122  O         14.1620    4.3430   16.7240 O.2   150  PHE150     -0.2864
    123  CB        12.2070    3.2250   18.3710 C.3   150  PHE150      0.0560
    124  CG        11.1480    2.2790   18.8770 C.ar  150  PHE150     -0.0200
    125  CD1       10.5130    2.5080   20.0940 C.ar  150  PHE150     -0.0042
    126  CD2       10.8140    1.1350   18.1560 C.ar  150  PHE150     -0.0042
    127  CE1        9.5540    1.6020   20.5970 C.ar  150  PHE150     -0.0003
    128  CE2        9.8560    0.2130   18.6430 C.ar  150  PHE150     -0.0003
    129  CZ         9.2250    0.4460   19.8650 C.ar  150  PHE150     -0.0000
    130  N          1.8490    6.6130   18.0950 N.3   159  TYR159     -0.1241
    131  CA         2.3920    5.7440   19.1560 C.3   159  TYR159      0.1605
    132  C          2.2720    6.3850   20.5480 C.2   159  TYR159      0.2264
    133  O          2.7190    7.5050   20.7690 O.2   159  TYR159     -0.2867
    134  CB         3.8570    5.3980   18.8390 C.3   159  TYR159      0.0534
    135  CG         4.5370    4.4510   19.8150 C.ar  159  TYR159     -0.0201
    136  CD1        4.2860    3.0770   19.7890 C.ar  159  TYR159     -0.0009
    137  CD2        5.4560    4.9340   20.7520 C.ar  159  TYR159     -0.0009
    138  CE1        4.9440    2.1920   20.6780 C.ar  159  TYR159      0.0417
    139  CE2        6.1160    4.0660   21.6460 C.ar  159  TYR159      0.0417
    140  CZ         5.8530    2.6970   21.6030 C.ar  159  TYR159      0.1957
    141  OH         6.5000    1.8500   22.4980 O.3   159  TYR159     -0.2866
    142  N          2.9310    4.3270   23.5290 N.3   161  GLY161     -0.1210
    143  CA         3.4550    3.3730   24.4900 C.3   161  GLY161      0.1956
    144  C          4.6540    3.8700   25.2630 C.2   161  GLY161      0.2612
    145  O          5.2080    4.9240   24.9490 O.2   161  GLY161     -0.2717
    146  N          5.0530    3.1130   26.2830 N.am  162  GLY162     -0.1956
    147  CA         6.2110    3.5000   27.0730 C.3   162  GLY162      0.1869
    148  C          5.8520    4.3080   28.3110 C.2   162  GLY162      0.2309
    149  O          5.5210    3.7270   29.3420 O.2   162  GLY162     -0.2863
    150  N         -1.8760  -10.1370   27.3710 N.3   183  GLY183     -0.1210
    151  CA        -0.6840  -10.3860   26.6000 C.3   183  GLY183      0.1956
    152  C         -0.1690   -9.1010   25.9740 C.2   183  GLY183      0.2612
    153  O         -0.7880   -8.0250   26.0760 O.2   183  GLY183     -0.2717
    154  N          0.9430   -9.2370   25.2730 N.am  184  TRP184     -0.1962
    155  CA         1.6250   -8.1120   24.6480 C.3   184  TRP184      0.1771
    156  C          0.9540   -7.3810   23.4790 C.2   184  TRP184      0.2620
    157  O          0.2460   -7.9850   22.6610 O.2   184  TRP184     -0.2715
    158  CB         3.0050   -8.5820   24.2100 C.3   184  TRP184      0.0590
    159  CG         3.9060   -7.4940   23.7350 C.ar  184  TRP184      0.0006
    160  CD1        4.7970   -6.7590   24.4910 C.ar  184  TRP184      0.0946
    161  CD2        4.0480   -7.0340   22.3870 C.ar  184  TRP184      0.0152
    162  NE1        5.4890   -5.8810   23.6810 N.ar  184  TRP184     -0.2442
    163  CE2        5.0500   -6.0290   22.3880 C.ar  184  TRP184      0.0810
    164  CE3        3.4330   -7.3750   21.1780 C.ar  184  TRP184      0.0012
    165  CZ2        5.4480   -5.3650   21.2230 C.ar  184  TRP184      0.0191
    166  CZ3        3.8290   -6.7100   20.0120 C.ar  184  TRP184      0.0001
    167  CH2        4.8270   -5.7200   20.0460 C.ar  184  TRP184      0.0015
    168  N          1.1660   -6.0650   23.4490 N.am  185  GLY185     -0.1954
    169  CA         0.6940   -5.2110   22.3680 C.3   185  GLY185      0.1869
    170  C         -0.7370   -4.7630   22.1640 C.2   185  GLY185      0.2309
    171  O         -1.6890   -5.4370   22.5430 O.2   185  GLY185     -0.2863
    172  N         -2.6160   -2.3510   23.5300 N.3   187  GLU187     -0.1231
    173  CA        -3.3140   -1.5540   24.5240 C.3   187  GLU187      0.1699
    174  C         -2.9990   -0.0700   24.3980 C.2   187  GLU187      0.2592
    175  O         -3.8770    0.7640   24.6320 O.2   187  GLU187     -0.2718
    176  CB        -3.0230   -2.0680   25.9400 C.3   187  GLU187      0.0402
    177  CG        -1.7980   -1.4870   26.6110 C.3   187  GLU187      0.1161
    178  CD        -0.4700   -1.9450   26.0210 C.2   187  GLU187      0.3649
    179  OE1        0.5340   -1.2470   26.2740 O.co2 187  GLU187     -0.2457
    180  OE2       -0.4080   -2.9840   25.3290 O.co2 187  GLU187     -0.2457
    181  N         -1.7670    0.2630   24.0110 N.am  188  ASP188     -0.1974
    182  CA        -1.3950    1.6630   23.8630 C.3   188  ASP188      0.1709
    183  C         -2.1130    2.2930   22.6660 C.2   188  ASP188      0.2293
    184  O         -2.4490    3.4610   22.7020 O.2   188  ASP188     -0.2864
    185  CB         0.1360    1.8360   23.7380 C.3   188  ASP188      0.1436
    186  CG         0.7710    0.8790   22.7230 C.2   188  ASP188      0.3671
    187  OD1        0.2600   -0.2590   22.5600 O.co2 188  ASP188     -0.2456
    188  OD2        1.8060    1.2560   22.1100 O.co2 188  ASP188     -0.2456
    189  N         15.8450    2.4470   27.2380 N.3   214  MET214     -0.1245
    190  CA        15.0750    1.3210   27.7150 C.3   214  MET214      0.1570
    191  C         16.0810    0.2240   28.0270 C.2   214  MET214      0.2261
    192  O         16.9150   -0.1120   27.1920 O.2   214  MET214     -0.2867
    193  CB        14.1000    0.7830   26.6700 C.3   214  MET214      0.0387
    194  CG        13.2430   -0.3110   27.2870 C.3   214  MET214      0.0595
    195  SD        12.3280   -1.3780   26.2100 S.3   214  MET214     -0.1393
    196  CE        13.6810   -2.6000   25.6850 C.3   214  MET214      0.0692
    197  N         16.1730   -6.1840   27.1070 N.3   217  HIS217     -0.1226
    198  CA        15.5960   -7.3820   27.7190 C.3   217  HIS217      0.1752
    199  C         14.8600   -8.2550   26.7140 C.2   217  HIS217      0.2597
    200  O         14.4430   -7.7810   25.6570 O.2   217  HIS217     -0.2718
    201  CB        14.6210   -6.9870   28.8300 C.3   217  HIS217      0.0759
    202  CG        13.4100   -6.2640   28.3310 C.ar  217  HIS217      0.0818
    203  ND1       12.3580   -6.9100   27.7200 N.ar  217  HIS217     -0.2268
    204  CD2       13.1040   -4.9440   28.3060 C.ar  217  HIS217      0.1154
    205  CE1       11.4570   -6.0220   27.3390 C.ar  217  HIS217      0.1986
    206  NE2       11.8860   -4.8210   27.6820 N.ar  217  HIS217     -0.2212
    207  N         14.7050   -9.5330   27.0620 N.am  218  SER218     -0.1938
    208  CA        13.9960  -10.4990   26.2220 C.3   218  SER218      0.2055
    209  C         12.5210  -10.4620   26.5650 C.2   218  SER218      0.2643
    210  O         12.1330   -9.8690   27.5640 O.2   218  SER218     -0.2714
    211  CB        14.5350  -11.9200   26.4360 C.3   218  SER218      0.2130
    212  OG        15.6640  -12.1650   25.6040 O.3   218  SER218     -0.2179
    213  N         11.6970  -11.0930   25.7400 N.am  219  ARG219     -0.1963
    214  CA        10.2750  -11.0990   26.0050 C.3   219  ARG219      0.1729
    215  C          9.9550  -12.0190   27.1800 C.2   219  ARG219      0.2616
    216  O         10.6600  -13.0020   27.4110 O.2   219  ARG219     -0.2715
    217  CB         9.4890  -11.5480   24.7750 C.3   219  ARG219      0.0348
    218  CG         8.0000  -11.2520   24.8940 C.3   219  ARG219      0.0492
    219  CD         7.7320   -9.7520   25.0500 C.3   219  ARG219      0.2205
    220  NE         7.9390   -8.9910   23.8110 N.pl3 219  ARG219     -0.0865
    221  CZ         7.1880   -9.1150   22.7180 C.cat 219  ARG219      0.5346
    222  NH1        6.1810   -9.9730   22.7070 N.pl3 219  ARG219      0.1354
    223  NH2        7.4260   -8.3720   21.6430 N.pl3 219  ARG219      0.1354
    224  N          8.8830  -11.6940   27.9030 N.am  220  ASP220     -0.1957
    225  CA         8.4500  -12.4670   29.0630 C.3   220  ASP220      0.1840
    226  C          7.4310  -13.5150   28.6610 C.2   220  ASP220      0.2621
    227  O          6.5800  -13.2680   27.8040 O.2   220  ASP220     -0.2715
    228  CB         7.8090  -11.5580   30.1220 C.3   220  ASP220      0.1450
    229  CG         8.7790  -10.5260   30.6830 C.2   220  ASP220      0.3671
    230  OD1        9.7330  -10.9100   31.3930 O.co2 220  ASP220     -0.2456
    231  OD2        8.5930   -9.3230   30.4150 O.co2 220  ASP220     -0.2456
    232  N          7.5310  -14.6910   29.2670 N.am  221  LYS221     -0.1977
    233  CA         6.5670  -15.7450   29.0010 C.3   221  LYS221      0.1596
    234  C          5.3210  -15.2170   29.7010 C.2   221  LYS221      0.2287
    235  O          5.4350  -14.4740   30.6830 O.2   221  LYS221     -0.2864
    236  CB         7.0140  -17.0660   29.6370 C.3   221  LYS221      0.0298
    237  CG         7.5820  -18.0760   28.6450 C.3   221  LYS221      0.0038
    238  CD         8.9280  -17.6270   28.0900 C.3   221  LYS221      0.0206
    239  CE         9.9770  -17.5500   29.1890 C.3   221  LYS221      0.1093
    240  NZ        11.2880  -17.0610   28.6820 N.3   221  LYS221     -0.1314
    241  N          3.4310  -13.1410   28.4480 N.3   223  ASN223     -0.1240
    242  CA         3.1720  -11.8270   27.8550 C.3   223  ASN223      0.1653
    243  C          3.5490  -11.8970   26.3800 C.2   223  ASN223      0.2266
    244  O          4.2580  -11.0320   25.8720 O.2   223  ASN223     -0.2867
    245  CB         3.9530  -10.6880   28.5400 C.3   223  ASN223      0.1155
    246  CG         3.3810   -9.3070   28.1840 C.2   223  ASN223      0.2627
    247  OD1        2.1620   -9.1470   28.0580 O.2   223  ASN223     -0.2716
    248  ND2        4.2520   -8.3130   28.0210 N.am  223  ASN223     -0.0877
@<TRIPOS>BOND
     1   122   121    2
     2   121   120    1
     3   130   131    1
     4   126   128   ar
     5   126   124   ar
     6   120   123    1
     7   120   119    1
     8   123   124    1
     9   128   129   ar
    10   134   131    1
    11   134   135    1
    12   124   125   ar
    13   113   112    2
    14   131   132    1
    15   119   112   am
    16   136   135   ar
    17   136   138   ar
    18   135   137   ar
    19   129   127   ar
    20   112   111    1
    21   166   167   ar
    22   166   164   ar
    23   167   165   ar
    24   125   127   ar
    25   132   133    2
    26   138   140   ar
    27   137   139   ar
    28   105   104    2
    29   164   161   ar
    30   165   163   ar
    31   111   110    1
    32   111   114    1
    33   115   114    1
    34   115   116    1
    35   140   139   ar
    36   140   141    1
    37   223   221    1
    38   117   116    1
    39   117   118    1
    40   104   103    1
    41   102   103    1
    42   188   186   ar
    43   170   169    1
    44   170   171    2
    45   169   168    1
    46   161   163   ar
    47   161   159   ar
    48   163   162   ar
    49   187   186   ar
    50   157   156    2
    51   183   184    2
    52   183   182    1
    53   222   221    1
    54   221   220    2
    55   186   185    1
    56   103   106    1
    57   106   107    1
    58   109   108    1
    59   168   156   am
    60   156   155    1
    61   142   143    1
    62   172   173    1
    63   162   160   ar
    64   159   158    1
    65   159   160   ar
    66   185   182    1
    67   220   219    1
    68   182   181    1
    69   181   174   am
    70   108   107    1
    71   158   155    1
    72   174   173    1
    73   174   175    2
    74   143   144    1
    75   173   176    1
    76   155   154    1
    77   217   218    1
    78   217   214    1
    79   218   219    1
    80   145   144    2
    81   144   146   am
    82   154   152   am
    83   180   178   ar
    84   212   211    1
    85   200   199    2
    86   196   195    1
    87   213   214    1
    88   213   209   am
    89   244   243    2
    90   176   177    1
    91   152   153    2
    92   152   151    1
    93   214   215    1
    94   178   179   ar
    95   178   177    1
    96   195   194    1
    97   208   211    1
    98   208   209    1
    99   208   207    1
   100   146   147    1
   101   243   242    1
   102   209   210    2
   103   151   150    1
   104   193   194    1
   105   193   190    1
   106   199   207   am
   107   199   198    1
   108   147   148    1
   109   197   198    1
   110   215   216    2
   111   215   224   am
   112   192   191    2
   113   189   190    1
   114   205   206   ar
   115   205   203   ar
   116   206   204   ar
   117   190   191    1
   118   101    99    1
   119   198   201    1
   120   203   202   ar
   121   227   226    2
   122   242   241    1
   123   242   245    1
   124   224   225    1
   125   248   246   am
   126   247   246    2
   127   238   237    1
   128   238   239    1
   129   246   245    1
   130    69    68    1
   131   100    99    1
   132   204   202   ar
   133   148   149    2
   134   202   201    1
   135    78    76   ar
   136   237   236    1
   137   226   225    1
   138   226   232   am
   139   240   239    1
   140    99    98    1
   141    68    70    1
   142    68    67    2
   143   233   232    1
   144   233   236    1
   145   233   234    1
   146   225   228    1
   147    66    67    1
   148    66    65    1
   149    76    77   ar
   150    76    75    1
   151    93    91   ar
   152   234   235    2
   153    92    91   ar
   154    98    95    1
   155    52    51    2
   156   228   229    1
   157    91    90    1
   158    64    65    1
   159    64    61    1
   160   231   229   ar
   161    48    46    1
   162    75    72    1
   163   229   230   ar
   164    89    88    2
   165    95    94    1
   166    95    96    1
   167    60    61    1
   168    51    50    1
   169    49    50    1
   170    90    87    1
   171    88    94   am
   172    88    87    1
   173    61    62    1
   174    53    50    1
   175    53    54    1
   176    96    97    2
   177    56    54   ar
   178    56    58   ar
   179    62    63    2
   180    46    47    1
   181    46    45    2
   182    72    71    1
   183    72    73    1
   184    87    86    1
   185    54    55   ar
   186    58    59   ar
   187    45    44    1
   188    86    81   am
   189    73    74    2
   190    73    79   am
   191     6     5    1
   192     6     7    1
   193    79    80    1
   194    55    57   ar
   195    59    57   ar
   196    28    27    1
   197    44    43    1
   198    81    80    1
   199    81    82    2
   200     5     2    1
   201    84    83    1
   202     7     1    1
   203    80    83    1
   204    43    42    1
   205    27    29    1
   206    27    26    2
   207    83    85    1
   208     4     3    2
   209     2     1    1
   210     2     3    1
   211    25    26    1
   212    25    24    1
   213    22    21    2
   214     3     8   am
   215    42    39    1
   216    37    35   am
   217    33    32    2
   218    23    24    1
   219    23    20    1
   220     8     9    1
   221    21    20    1
   222    21    30   am
   223    19    20    1
   224    19    10   am
   225    39    38    1
   226    39    40    1
   227     9    10    1
   228     9    12    1
   229    34    35    1
   230    34    31    1
   231    32    38   am
   232    32    31    1
   233    35    36    2
   234    10    11    2
   235    31    30    1
   236    41    40    2
   237    12    13    1
   238    14    13   ar
   239    14    16   ar
   240    13    15   ar
   241    16    18   ar
   242    15    17   ar
   243    18    17   ar
