@<TRIPOS>MOLECULE
tmp/1oqnB00.pdb
 198 193 0 0 0
SMALL
GASTEIGER

@<TRIPOS>ATOM
      1  N         51.0550   26.9150   61.7990 N.3    31  ALA31      -0.1231
      2  CA        50.2770   25.9820   62.5990 C.3    31  ALA31       0.1694
      3  C         48.8650   25.8040   62.0540 C.2    31  ALA31       0.2591
      4  O         48.1900   24.8500   62.4170 O.2    31  ALA31      -0.2718
      5  CB        50.2180   26.4660   64.0350 C.3    31  ALA31       0.0304
      6  N         48.4140   26.7170   61.1940 N.am   32  ARG32      -0.1980
      7  CA        47.0780   26.6000   60.6230 C.3    32  ARG32       0.1597
      8  C         46.8960   27.3720   59.3230 C.2    32  ARG32       0.2287
      9  O         47.8420   27.9560   58.7880 O.2    32  ARG32      -0.2864
     10  CB        46.0030   27.0420   61.6290 C.3    32  ARG32       0.0334
     11  CG        45.8660   28.5420   61.8210 C.3    32  ARG32       0.0492
     12  CD        46.8410   29.0690   62.8420 C.3    32  ARG32       0.2205
     13  NE        46.6560   28.4620   64.1550 N.pl3  32  ARG32      -0.0865
     14  CZ        47.3060   28.8510   65.2490 C.cat  32  ARG32       0.5346
     15  NH1       48.1750   29.8500   65.1790 N.pl3  32  ARG32       0.1354
     16  NH2       47.1050   28.2310   66.4050 N.pl3  32  ARG32       0.1354
     17  N         43.6960   27.2250   56.0020 N.3    34  ASP34      -0.1239
     18  CA        43.1630   26.2940   55.0100 C.3    34  ASP34       0.1674
     19  C         43.9990   26.1620   53.7390 C.2    34  ASP34       0.2266
     20  O         44.1140   25.0650   53.1910 O.2    34  ASP34      -0.2867
     21  CB        41.7210   26.6720   54.6320 C.3    34  ASP34       0.1410
     22  CG        40.7300   26.3740   55.7460 C.2    34  ASP34       0.3668
     23  OD1       40.7400   25.2310   56.2510 O.co2  34  ASP34      -0.2456
     24  OD2       39.9410   27.2730   56.1180 O.co2  34  ASP34      -0.2456
     25  N         47.5740   15.1980   71.7820 N.3    86  VAL86      -0.1231
     26  CA        46.5610   16.2210   71.5670 C.3    86  VAL86       0.1692
     27  C         47.1030   17.6530   71.6820 C.2    86  VAL86       0.2592
     28  O         46.8860   18.4680   70.7840 O.2    86  VAL86      -0.2718
     29  CB        45.3860   16.0410   72.5660 C.3    86  VAL86       0.0266
     30  CG1       44.6200   17.3460   72.7230 C.3    86  VAL86       0.0020
     31  CG2       44.4450   14.9460   72.0710 C.3    86  VAL86       0.0020
     32  N         47.7870   17.9700   72.7780 N.am   87  HIS87      -0.1962
     33  CA        48.3090   19.3220   72.9430 C.3    87  HIS87       0.1787
     34  C         49.3020   19.6810   71.8450 C.2    87  HIS87       0.2620
     35  O         49.7050   20.8380   71.7370 O.2    87  HIS87      -0.2715
     36  CB        48.9750   19.5040   74.3190 C.3    87  HIS87       0.0785
     37  CG        50.1360   18.5860   74.5570 C.ar   87  HIS87       0.0821
     38  ND1       49.9840   17.3100   75.0540 N.ar   87  HIS87      -0.2267
     39  CD2       51.4600   18.7490   74.3270 C.ar   87  HIS87       0.1154
     40  CE1       51.1670   16.7230   75.1210 C.ar   87  HIS87       0.1986
     41  NE2       52.0780   17.5730   74.6860 N.ar   87  HIS87      -0.2212
     42  N         49.6960   18.7000   71.0330 N.am   88  GLU88      -0.1963
     43  CA        50.6380   18.9390   69.9390 C.3    88  GLU88       0.1733
     44  C         49.9450   19.1770   68.6010 C.2    88  GLU88       0.2616
     45  O         50.5690   19.6760   67.6660 O.2    88  GLU88      -0.2715
     46  CB        51.6000   17.7560   69.7750 C.3    88  GLU88       0.0429
     47  CG        52.6060   17.5850   70.9100 C.3    88  GLU88       0.1163
     48  CD        53.6620   16.5250   70.6140 C.2    88  GLU88       0.3649
     49  OE1       54.6680   16.4680   71.3510 O.co2  88  GLU88      -0.2457
     50  OE2       53.4850   15.7520   69.6510 O.co2  88  GLU88      -0.2457
     51  N         48.6730   18.7970   68.4980 N.am   89  ILE89      -0.1963
     52  CA        47.9320   18.9760   67.2500 C.3    89  ILE89       0.1727
     53  C         47.2760   20.3430   67.2760 C.2    89  ILE89       0.2617
     54  O         46.5630   20.6850   68.2240 O.2    89  ILE89      -0.2715
     55  CB        46.8670   17.8550   67.0530 C.3    89  ILE89       0.0290
     56  CG1       47.5630   16.4960   66.9610 C.3    89  ILE89       0.0022
     57  CG2       46.0930   18.0670   65.7650 C.3    89  ILE89       0.0023
     58  CD1       46.6310   15.3250   66.9280 C.3    89  ILE89       0.0001
     59  N         47.5460   21.1400   66.2460 N.am   90  SER90      -0.1936
     60  CA        46.9930   22.4790   66.1870 C.3    90  SER90       0.2055
     61  C         45.8930   22.6710   65.1590 C.2    90  SER90       0.2643
     62  O         45.0490   23.5380   65.3290 O.2    90  SER90      -0.2714
     63  CB        48.1080   23.4980   65.9300 C.3    90  SER90       0.2130
     64  OG        48.6580   23.3490   64.6390 O.3    90  SER90      -0.2179
     65  N         45.8890   21.8730   64.0980 N.am   91  TYR91      -0.1959
     66  CA        44.8790   22.0370   63.0520 C.3    91  TYR91       0.1771
     67  C         44.4220   20.7530   62.3570 C.2    91  TYR91       0.2619
     68  O         45.1970   19.8400   62.1350 O.2    91  TYR91      -0.2715
     69  CB        45.3980   23.0140   61.9940 C.3    91  TYR91       0.0574
     70  CG        44.3110   23.7640   61.2530 C.ar   91  TYR91      -0.0198
     71  CD1       44.1100   23.5790   59.8840 C.ar   91  TYR91      -0.0009
     72  CD2       43.5140   24.6920   61.9130 C.ar   91  TYR91      -0.0009
     73  CE1       43.1570   24.3100   59.1950 C.ar   91  TYR91       0.0417
     74  CE2       42.5540   25.4280   61.2360 C.ar   91  TYR91       0.0417
     75  CZ        42.3780   25.2360   59.8760 C.ar   91  TYR91       0.1957
     76  OH        41.4500   25.9940   59.1890 O.3    91  TYR91      -0.2866
     77  N         43.1430   20.7110   62.0110 N.am   92  ILE92      -0.1963
     78  CA        42.5340   19.5760   61.3220 C.3    92  ILE92       0.1727
     79  C         41.8270   20.0830   60.0450 C.2    92  ILE92       0.2616
     80  O         40.9580   20.9490   60.1090 O.2    92  ILE92      -0.2715
     81  CB        41.5080   18.8610   62.2620 C.3    92  ILE92       0.0290
     82  CG1       42.2080   17.8120   63.1190 C.3    92  ILE92       0.0022
     83  CG2       40.4490   18.1530   61.4540 C.3    92  ILE92       0.0023
     84  CD1       43.3670   18.3190   63.8930 C.3    92  ILE92       0.0001
     85  N         42.1960   19.5480   58.8870 N.am   93  ALA93      -0.1963
     86  CA        41.5770   19.9780   57.6410 C.3    93  ALA93       0.1728
     87  C         41.2450   18.8190   56.7200 C.2    93  ALA93       0.2616
     88  O         42.0100   17.8650   56.5810 O.2    93  ALA93      -0.2715
     89  CB        42.4780   20.9640   56.9080 C.3    93  ALA93       0.0334
     90  N         40.0820   18.9230   56.0940 N.am   94  LYS94      -0.1977
     91  CA        39.6220   17.9250   55.1560 C.3    94  LYS94       0.1596
     92  C         40.1920   18.3690   53.8160 C.2    94  LYS94       0.2287
     93  O         40.7370   19.4620   53.6910 O.2    94  LYS94      -0.2864
     94  CB        38.0990   17.9500   55.0860 C.3    94  LYS94       0.0298
     95  CG        37.4350   18.1880   56.4250 C.3    94  LYS94       0.0038
     96  CD        35.9810   18.6540   56.2620 C.3    94  LYS94       0.0206
     97  CE        35.3430   18.9110   57.6310 C.3    94  LYS94       0.1093
     98  NZ        33.9590   19.4470   57.5480 N.3    94  LYS94      -0.1314
     99  N         38.9360   19.2760   50.3510 N.3    96  ILE96      -0.1245
    100  CA        37.6950   19.5980   49.6440 C.3    96  ILE96       0.1561
    101  C         37.4310   18.9530   48.2790 C.2    96  ILE96       0.2260
    102  O         36.3330   19.0830   47.7370 O.2    96  ILE96      -0.2867
    103  CB        37.5250   21.1330   49.4750 C.3    96  ILE96       0.0252
    104  CG1       38.8850   21.8280   49.5810 C.3    96  ILE96       0.0019
    105  CG2       36.5390   21.6670   50.5140 C.3    96  ILE96       0.0019
    106  CD1       39.8900   21.3930   48.5260 C.3    96  ILE96       0.0001
    107  N         53.3040   19.2580   65.9780 N.3   107  GLY107     -0.1210
    108  CA        54.5210   19.9990   66.2590 C.3   107  GLY107      0.1956
    109  C         54.5420   21.1960   67.1880 C.2   107  GLY107      0.2612
    110  O         53.5170   21.8030   67.4980 O.2   107  GLY107     -0.2717
    111  N         55.7580   21.5240   67.6260 N.am  108  LYS108     -0.1965
    112  CA        56.0170   22.6540   68.5090 C.3   108  LYS108      0.1728
    113  C         56.1960   23.8740   67.6160 C.2   108  LYS108      0.2616
    114  O         56.5900   23.7470   66.4530 O.2   108  LYS108     -0.2715
    115  CB        57.3130   22.4370   69.2930 C.3   108  LYS108      0.0311
    116  CG        57.3790   21.1580   70.1070 C.3   108  LYS108      0.0038
    117  CD        56.7020   21.2980   71.4570 C.3   108  LYS108      0.0206
    118  CE        57.6220   20.7900   72.5640 C.3   108  LYS108      0.1093
    119  NZ        58.1600   19.4210   72.2690 N.3   108  LYS108     -0.1314
    120  N         55.9010   25.0460   68.1680 N.am  109  GLU109     -0.1977
    121  CA        56.0350   26.3050   67.4570 C.3   109  GLU109      0.1602
    122  C         57.3100   26.3290   66.6190 C.2   109  GLU109      0.2287
    123  O         58.3910   26.0320   67.1190 O.2   109  GLU109     -0.2864
    124  CB        56.0920   27.4400   68.4700 C.3   109  GLU109      0.0415
    125  CG        54.8650   27.5680   69.3440 C.3   109  GLU109      0.1163
    126  CD        53.6100   27.8260   68.5330 C.2   109  GLU109      0.3649
    127  OE1       53.6770   28.6290   67.5740 O.co2 109  GLU109     -0.2457
    128  OE2       52.5600   27.2370   68.8580 O.co2 109  GLU109     -0.2457
    129  N         56.5700   22.7690   62.6690 N.3   112  HIS112     -0.1241
    130  CA        55.3210   22.1570   62.2250 C.3   112  HIS112      0.1621
    131  C         55.4790   21.1330   61.1000 C.2   112  HIS112      0.2264
    132  O         56.3850   21.2360   60.2600 O.2   112  HIS112     -0.2867
    133  CB        54.3440   23.2440   61.7670 C.3   112  HIS112      0.0745
    134  CG        54.1830   24.3720   62.7420 C.ar  112  HIS112      0.0817
    135  ND1       53.6960   24.1940   64.0220 N.ar  112  HIS112     -0.2268
    136  CD2       54.4350   25.6970   62.6200 C.ar  112  HIS112      0.1154
    137  CE1       53.6550   25.3590   64.6430 C.ar  112  HIS112      0.1986
    138  NE2       54.0980   26.2890   63.8150 N.ar  112  HIS112     -0.2212
    139  N         37.0660   16.5460   66.3200 N.3   131  ARG131     -0.1245
    140  CA        36.4640   17.7660   66.7830 C.3   131  ARG131      0.1563
    141  C         35.7860   17.4920   68.1270 C.2   131  ARG131      0.2260
    142  O         35.8630   18.3220   69.0280 O.2   131  ARG131     -0.2867
    143  CB        35.4740   18.2730   65.7350 C.3   131  ARG131      0.0307
    144  CG        35.2490   19.7740   65.7600 C.3   131  ARG131      0.0489
    145  CD        34.3220   20.2780   64.6440 C.3   131  ARG131      0.2205
    146  NE        34.8410   19.9990   63.3040 N.pl3 131  ARG131     -0.0865
    147  CZ        35.0090   20.9140   62.3460 C.cat 131  ARG131      0.5346
    148  NH1       34.7030   22.1860   62.5730 N.pl3 131  ARG131      0.1354
    149  NH2       35.4820   20.5580   61.1520 N.pl3 131  ARG131      0.1354
    150  N         38.9390   17.0720   70.9180 N.3   134  PHE134     -0.1227
    151  CA        39.5470   18.3300   71.3280 C.3   134  PHE134      0.1736
    152  C         38.5800   19.1500   72.1790 C.2   134  PHE134      0.2595
    153  O         38.9750   19.7090   73.1890 O.2   134  PHE134     -0.2718
    154  CB        39.9720   19.1660   70.1080 C.3   134  PHE134      0.0547
    155  CG        40.9920   18.5020   69.2180 C.ar  134  PHE134     -0.0202
    156  CD1       41.8010   17.4720   69.6880 C.ar  134  PHE134     -0.0042
    157  CD2       41.1620   18.9310   67.9070 C.ar  134  PHE134     -0.0042
    158  CE1       42.7500   16.8720   68.8630 C.ar  134  PHE134     -0.0003
    159  CE2       42.1130   18.3360   67.0720 C.ar  134  PHE134     -0.0003
    160  CZ        42.9090   17.3110   67.5530 C.ar  134  PHE134     -0.0000
    161  N         37.3180   19.2370   71.7640 N.am  135  GLN135     -0.1979
    162  CA        36.3360   20.0120   72.5210 C.3   135  GLN135      0.1601
    163  C         36.1590   19.4710   73.9370 C.2   135  GLN135      0.2287
    164  O         36.0970   20.2320   74.9050 O.2   135  GLN135     -0.2864
    165  CB        34.9680   20.0110   71.8220 C.3   135  GLN135      0.0394
    166  CG        33.8240   20.5360   72.7280 C.3   135  GLN135      0.0908
    167  CD        32.4070   20.2920   72.1790 C.2   135  GLN135      0.2608
    168  OE1       32.2080   19.6520   71.1340 O.2   135  GLN135     -0.2717
    169  NE2       31.4180   20.8010   72.8960 N.am  135  GLN135     -0.0878
    170  N         38.2850   17.5670   75.6940 N.3   137  ILE137     -0.1231
    171  CA        39.4850   17.7170   76.4900 C.3   137  ILE137      0.1692
    172  C         39.6180   19.1490   77.0100 C.2   137  ILE137      0.2592
    173  O         40.1210   19.3690   78.1170 O.2   137  ILE137     -0.2718
    174  CB        40.7170   17.3030   75.6690 C.3   137  ILE137      0.0266
    175  CG1       40.7240   15.7780   75.5220 C.3   137  ILE137      0.0019
    176  CG2       41.9940   17.7900   76.3280 C.3   137  ILE137      0.0020
    177  CD1       41.9480   15.2270   74.8270 C.3   137  ILE137      0.0001
    178  N         39.1550   20.1180   76.2200 N.am  138  TYR138     -0.1976
    179  CA        39.2110   21.5140   76.6330 C.3   138  TYR138      0.1639
    180  C         38.3000   21.7280   77.8410 C.2   138  TYR138      0.2290
    181  O         38.6790   22.3970   78.7970 O.2   138  TYR138     -0.2864
    182  CB        38.7690   22.4330   75.4960 C.3   138  TYR138      0.0560
    183  CG        38.8880   23.9010   75.8290 C.ar  138  TYR138     -0.0198
    184  CD1       40.0260   24.6230   75.4880 C.ar  138  TYR138     -0.0009
    185  CD2       37.8610   24.5700   76.4930 C.ar  138  TYR138     -0.0009
    186  CE1       40.1340   25.9750   75.7940 C.ar  138  TYR138      0.0417
    187  CE2       37.9660   25.9220   76.8100 C.ar  138  TYR138      0.0417
    188  CZ        39.0980   26.6200   76.4520 C.ar  138  TYR138      0.1957
    189  OH        39.1860   27.9750   76.7080 O.3   138  TYR138     -0.2866
    190  N         39.8410   20.0610   80.9280 N.3   141  LYS141     -0.1245
    191  CA        40.9860   20.7890   81.4470 C.3   141  LYS141      0.1561
    192  C         40.5910   22.1030   82.1010 C.2   141  LYS141      0.2260
    193  O         41.1920   22.5230   83.0890 O.2   141  LYS141     -0.2867
    194  CB        42.0040   21.0350   80.3380 C.3   141  LYS141      0.0271
    195  CG        43.3730   20.4360   80.6420 C.3   141  LYS141      0.0035
    196  CD        44.0290   19.8580   79.3810 C.3   141  LYS141      0.0206
    197  CE        43.4250   18.5020   78.9920 C.3   141  LYS141      0.1093
    198  NZ        43.8570   17.4240   79.9280 N.3   141  LYS141     -0.1314
@<TRIPOS>BOND
     1   102   101    2
     2   101   100    1
     3   106   104    1
     4   103   104    1
     5   103   100    1
     6   103   105    1
     7   100    99    1
     8    20    19    2
     9    93    92    2
    10    19    18    1
    11    92    91    1
    12    21    18    1
    13    21    22    1
    14    18    17    1
    15    94    91    1
    16    94    95    1
    17    91    90    1
    18    22    24   ar
    19    22    23   ar
    20    90    87   am
    21    96    95    1
    22    96    97    1
    23    88    87    2
    24    87    86    1
    25    89    86    1
    26    98    97    1
    27    86    85    1
    28     9     8    2
    29    85    79   am
    30    76    75    1
    31    73    75   ar
    32    73    71   ar
    33     8     7    1
    34    75    74   ar
    35    71    70   ar
    36    79    80    2
    37    79    78    1
    38   132   131    2
    39     7     6    1
    40     7    10    1
    41   131   130    1
    42   149   147    1
    43     6     3   am
    44    74    72   ar
    45    70    72   ar
    46    70    69    1
    47    78    77    1
    48    78    81    1
    49    83    81    1
    50    10    11    1
    51   133   130    1
    52   133   134    1
    53     1     2    1
    54    11    12    1
    55    69    66    1
    56    77    67   am
    57     3     4    2
    58     3     2    1
    59    68    67    2
    60   130   129    1
    61    81    82    1
    62   147   148    1
    63   147   146    2
    64    67    66    1
    65     2     5    1
    66   136   134   ar
    67   136   138   ar
    68   134   135   ar
    69    12    13    1
    70    66    65    1
    71    82    84    1
    72   146   145    1
    73   138   137   ar
    74   135   137   ar
    75    65    61   am
    76    13    14    2
    77    64    63    1
    78   145   144    1
    79    61    62    2
    80    61    60    1
    81    15    14    1
    82    14    16    1
    83   143   144    1
    84   143   140    1
    85    57    55    1
    86    63    60    1
    87   107   108    1
    88    60    59    1
    89    59    53   am
    90   108   109    1
    91   139   140    1
    92   114   113    2
    93   122   123    2
    94   122   121    1
    95   140   141    1
    96    58    56    1
    97    56    55    1
    98    55    52    1
    99   159   160   ar
   100   159   157   ar
   101   109   110    2
   102   109   111   am
   103    52    53    1
   104    52    51    1
   105    53    54    2
   106   121   120    1
   107   121   124    1
   108   160   158   ar
   109   127   126   ar
   110   113   120   am
   111   113   112    1
   112   111   112    1
   113    45    44    2
   114   157   155   ar
   115   141   142    2
   116   124   125    1
   117    51    44   am
   118   112   115    1
   119   126   128   ar
   120   126   125    1
   121    44    43    1
   122   158   156   ar
   123   155   156   ar
   124   155   154    1
   125   115   116    1
   126    50    48   ar
   127    46    43    1
   128    46    47    1
   129    43    42    1
   130   116   117    1
   131   154   151    1
   132    48    47    1
   133    48    49   ar
   134    28    27    2
   135   150   151    1
   136    42    34   am
   137   168   167    2
   138   151   152    1
   139   117   118    1
   140    26    27    1
   141    26    25    1
   142    26    29    1
   143    27    32   am
   144    35    34    2
   145   161   152   am
   146   161   162    1
   147   165   162    1
   148   165   166    1
   149    34    33    1
   150    31    29    1
   151   167   166    1
   152   167   169   am
   153   152   153    2
   154   119   118    1
   155   162   163    1
   156    29    30    1
   157    32    33    1
   158    33    36    1
   159   163   164    2
   160    36    37    1
   161    39    37   ar
   162    39    41   ar
   163    37    38   ar
   164    41    40   ar
   165   177   175    1
   166    38    40   ar
   167   184   186   ar
   168   184   183   ar
   169   182   183    1
   170   182   179    1
   171   175   174    1
   172   174   176    1
   173   174   171    1
   174   170   171    1
   175   186   188   ar
   176   183   185   ar
   177   178   179    1
   178   178   172   am
   179   188   189    1
   180   188   187   ar
   181   171   172    1
   182   185   187   ar
   183   179   180    1
   184   172   173    2
   185   180   181    2
   186   197   196    1
   187   197   198    1
   188   196   195    1
   189   194   195    1
   190   194   191    1
   191   190   191    1
   192   191   192    1
   193   192   193    2
