@<TRIPOS>MOLECULE
tmp/1or4A00.pdb
 244 235 0 0 0
SMALL
GASTEIGER

@<TRIPOS>ATOM
      1  N         32.4000   68.7170    9.0760 N.3    60  PHE60      -0.1227
      2  CA        31.3280   68.4360    8.1370 C.3    60  PHE60       0.1736
      3  C         30.4750   67.2330    8.5390 C.2    60  PHE60       0.2595
      4  O         29.2460   67.3520    8.4720 O.2    60  PHE60      -0.2718
      5  CB        31.9210   68.2160    6.7600 C.3    60  PHE60       0.0547
      6  CG        31.0180   67.9600    5.5780 C.ar   60  PHE60      -0.0202
      7  CD1       30.7220   66.6590    5.1800 C.ar   60  PHE60      -0.0042
      8  CD2       30.4730   69.0050    4.8460 C.ar   60  PHE60      -0.0042
      9  CE1       29.9100   66.4480    4.0820 C.ar   60  PHE60      -0.0003
     10  CE2       29.6560   68.7970    3.7510 C.ar   60  PHE60      -0.0003
     11  CZ        29.3780   67.4950    3.3520 C.ar   60  PHE60      -0.0000
     12  N         31.0610   66.1040    8.9150 N.am   61  TYR61      -0.1976
     13  CA        30.2580   64.9040    9.2330 C.3    61  TYR61       0.1639
     14  C         29.5690   65.0810   10.5740 C.2    61  TYR61       0.2290
     15  O         28.4120   64.7010   10.7650 O.2    61  TYR61      -0.2864
     16  CB        31.1270   63.6160    9.1280 C.3    61  TYR61       0.0560
     17  CG        31.4670   63.4840    7.6400 C.ar   61  TYR61      -0.0198
     18  CD1       30.5310   62.9740    6.7560 C.ar   61  TYR61      -0.0009
     19  CD2       32.6950   63.9010    7.1640 C.ar   61  TYR61      -0.0009
     20  CE1       30.8240   62.8580    5.4160 C.ar   61  TYR61       0.0417
     21  CE2       32.9900   63.7950    5.8210 C.ar   61  TYR61       0.0417
     22  CZ        32.0570   63.2740    4.9570 C.ar   61  TYR61       0.1957
     23  OH        32.3790   63.1900    3.6210 O.3    61  TYR61      -0.2866
     24  N         26.4700   66.8400   10.0290 N.3    64  LEU64      -0.1245
     25  CA        25.3900   66.0050    9.4900 C.3    64  LEU64       0.1561
     26  C         24.7050   65.1440   10.5300 C.2    64  LEU64       0.2260
     27  O         23.6360   64.5720   10.2310 O.2    64  LEU64      -0.2867
     28  CB        25.8790   65.0930    8.3550 C.3    64  LEU64       0.0270
     29  CG        26.6280   65.8460    7.2500 C.3    64  LEU64       0.0019
     30  CD1       27.0680   64.9100    6.1380 C.3    64  LEU64       0.0001
     31  CD2       25.7560   66.9720    6.7060 C.3    64  LEU64       0.0001
     32  N         20.4830   61.1810    7.3760 N.3    70  LEU70      -0.1245
     33  CA        21.6130   61.4230    6.4720 C.3    70  LEU70       0.1561
     34  C         22.7280   60.4400    6.8370 C.2    70  LEU70       0.2260
     35  O         23.4560   59.9740    5.9860 O.2    70  LEU70      -0.2867
     36  CB        22.1230   62.8600    6.5460 C.3    70  LEU70       0.0270
     37  CG        21.1620   63.9700    6.0840 C.3    70  LEU70       0.0019
     38  CD1       21.8130   65.3400    6.2060 C.3    70  LEU70       0.0001
     39  CD2       20.6750   63.7520    4.6650 C.3    70  LEU70       0.0001
     40  N         21.9570   57.0260    5.6380 N.3    73  ILE73      -0.1231
     41  CA        22.3580   57.0080    4.2470 C.3    73  ILE73       0.1692
     42  C         23.8460   56.6860    4.1480 C.2    73  ILE73       0.2591
     43  O         24.2180   55.8330    3.3400 O.2    73  ILE73      -0.2718
     44  CB        22.0500   58.3300    3.5150 C.3    73  ILE73       0.0266
     45  CG1       20.5600   58.6680    3.5410 C.3    73  ILE73       0.0019
     46  CG2       22.5620   58.2450    2.0860 C.3    73  ILE73       0.0020
     47  CD1       20.1240   59.6550    2.4810 C.3    73  ILE73       0.0001
     48  N         24.6420   57.3750    4.9620 N.am   74  ILE74      -0.1980
     49  CA        26.0950   57.1720    4.8910 C.3    74  ILE74       0.1595
     50  C         26.4490   55.7440    5.3100 C.2    74  ILE74       0.2287
     51  O         27.2010   55.0440    4.6490 O.2    74  ILE74      -0.2864
     52  CB        26.8400   58.1960    5.7690 C.3    74  ILE74       0.0276
     53  CG1       26.9580   59.6090    5.1670 C.3    74  ILE74       0.0022
     54  CG2       28.2110   57.6720    6.1740 C.3    74  ILE74       0.0022
     55  CD1       27.1210   60.6710    6.2610 C.3    74  ILE74       0.0001
     56  N         25.6680   53.0220    2.8410 N.3    77  HIS77      -0.1226
     57  CA        26.4960   52.8920    1.6430 C.3    77  HIS77       0.1752
     58  C         27.9860   52.9030    1.9420 C.2    77  HIS77       0.2596
     59  O         28.8370   52.6270    1.0930 O.2    77  HIS77      -0.2718
     60  CB        26.2190   54.0410    0.6530 C.3    77  HIS77       0.0759
     61  CG        24.8540   54.0340    0.0690 C.ar   77  HIS77       0.0818
     62  ND1       24.5990   53.6340   -1.2210 N.ar   77  HIS77      -0.2268
     63  CD2       23.6580   54.3700    0.6110 C.ar   77  HIS77       0.1154
     64  CE1       23.3050   53.7300   -1.4610 C.ar   77  HIS77       0.1986
     65  NE2       22.7080   54.1770   -0.3640 N.ar   77  HIS77      -0.2212
     66  N         28.3800   53.2480    3.1620 N.am   78  SER78      -0.1952
     67  CA        29.8070   53.5090    3.3450 C.3    78  SER78       0.1924
     68  C         30.0840   53.7240    4.8110 C.2    78  SER78       0.2314
     69  O         29.5760   53.0610    5.7110 O.2    78  SER78      -0.2863
     70  CB        30.1550   54.7630    2.5320 C.3    78  SER78       0.2116
     71  OG        31.5340   54.9080    2.3340 O.3    78  SER78      -0.2180
     72  N         35.3740   56.6410    5.7480 N.3    82  ARG82      -0.1231
     73  CA        35.8230   56.4480    4.3670 C.3    82  ARG82       0.1694
     74  C         35.3680   57.5680    3.4370 C.2    82  ARG82       0.2591
     75  O         36.0580   57.8200    2.4390 O.2    82  ARG82      -0.2718
     76  CB        35.3470   55.0710    3.8840 C.3    82  ARG82       0.0321
     77  CG        35.8990   54.7180    2.5130 C.3    82  ARG82       0.0489
     78  CD        35.7900   53.2310    2.2350 C.3    82  ARG82       0.2205
     79  NE        34.8630   52.9940    1.1230 N.pl3  82  ARG82      -0.0865
     80  CZ        33.6050   52.6220    1.3430 C.cat  82  ARG82       0.5346
     81  NH1       32.7940   52.4180    0.3190 N.pl3  82  ARG82       0.1354
     82  NH2       33.1970   52.4630    2.5960 N.pl3  82  ARG82       0.1354
     83  N         34.2510   58.2420    3.6960 N.am   83  LEU83      -0.1980
     84  CA        33.7900   59.4070    2.9290 C.3    83  LEU83       0.1596
     85  C         34.7090   60.6190    3.1160 C.2    83  LEU83       0.2287
     86  O         34.9780   61.4300    2.2320 O.2    83  LEU83      -0.2864
     87  CB        32.3670   59.7640    3.3500 C.3    83  LEU83       0.0297
     88  CG        31.1860   59.6890    2.3880 C.3    83  LEU83       0.0022
     89  CD1       31.3560   58.6450    1.3080 C.3    83  LEU83       0.0001
     90  CD2       29.8830   59.4060    3.1390 C.3    83  LEU83       0.0001
     91  N         37.5700   60.8780    0.5560 N.3    86  THR86      -0.1203
     92  CA        37.1100   61.3500   -0.7470 C.3    86  THR86       0.1994
     93  C         36.6420   62.8010   -0.6250 C.2    86  THR86       0.2617
     94  O         36.7530   63.5670   -1.5780 O.2    86  THR86      -0.2717
     95  CB        35.9880   60.4880   -1.3510 C.3    86  THR86       0.1784
     96  OG1       35.0700   60.0820   -0.3270 O.3    86  THR86      -0.2211
     97  CG2       36.5820   59.2070   -1.9270 C.3    86  THR86       0.0376
     98  N         36.1430   63.1630    0.5540 N.am   87  LEU87      -0.1979
     99  CA        35.7480   64.5700    0.6950 C.3    87  LEU87       0.1596
    100  C         36.9790   65.4670    0.7430 C.2    87  LEU87       0.2287
    101  O         36.9760   66.6130    0.2800 O.2    87  LEU87      -0.2864
    102  CB        34.9090   64.7460    1.9630 C.3    87  LEU87       0.0297
    103  CG        34.2890   66.1480    2.1050 C.3    87  LEU87       0.0022
    104  CD1       33.3490   66.4200    0.9440 C.3    87  LEU87       0.0001
    105  CD2       33.5820   66.2870    3.4370 C.3    87  LEU87       0.0001
    106  N         37.9610   65.9270   -2.9000 N.3    90  HIS90      -0.1241
    107  CA        37.0000   66.8230   -3.5450 C.3    90  HIS90       0.1621
    108  C         37.1680   68.2750   -3.0970 C.2    90  HIS90       0.2264
    109  O         37.1490   69.2130   -3.8830 O.2    90  HIS90      -0.2867
    110  CB        35.5810   66.3730   -3.2170 C.3    90  HIS90       0.0745
    111  CG        34.5710   66.8380   -4.2190 C.ar   90  HIS90       0.0817
    112  ND1       33.8990   68.0340   -4.0980 N.ar   90  HIS90      -0.2268
    113  CD2       34.1020   66.2570   -5.3450 C.ar   90  HIS90       0.1154
    114  CE1       33.0670   68.1730   -5.1160 C.ar   90  HIS90       0.1986
    115  NE2       33.1740   67.1030   -5.8920 N.ar   90  HIS90      -0.2212
    116  N         38.5430   71.7780   -5.3980 N.3    94  MET94      -0.1245
    117  CA        37.9420   73.0970   -5.5170 C.3    94  MET94       0.1570
    118  C         38.9610   74.2370   -5.5350 C.2    94  MET94       0.2261
    119  O         38.6540   75.3140   -6.0440 O.2    94  MET94      -0.2867
    120  CB        37.0380   73.3690   -4.3190 C.3    94  MET94       0.0387
    121  CG        35.5610   73.0750   -4.4620 C.3    94  MET94       0.0595
    122  SD        34.7950   73.1720   -2.8220 S.3    94  MET94      -0.1393
    123  CE        33.9500   71.5800   -2.7930 C.3    94  MET94       0.0692
    124  N         33.4030   65.4940  -13.4580 N.3   106  LYS106     -0.1245
    125  CA        33.4380   64.9530  -12.0950 C.3   106  LYS106      0.1561
    126  C         32.2980   65.5250  -11.2590 C.2   106  LYS106      0.2260
    127  O         31.6470   64.8420  -10.4590 O.2   106  LYS106     -0.2867
    128  CB        34.7730   65.2510  -11.4230 C.3   106  LYS106      0.0271
    129  CG        35.4280   64.1490  -10.6230 C.3   106  LYS106      0.0035
    130  CD        36.1140   64.6380   -9.3550 C.3   106  LYS106      0.0206
    131  CE        35.8420   63.7250   -8.1680 C.3   106  LYS106      0.1093
    132  NZ        35.9320   64.4320   -6.8530 N.3   106  LYS106     -0.1314
    133  N         29.3190   63.2660   -9.2820 N.3   110  ILE110     -0.1245
    134  CA        29.0030   63.1230   -7.8530 C.3   110  ILE110      0.1561
    135  C         27.5490   63.5120   -7.5900 C.2   110  ILE110      0.2260
    136  O         26.9180   63.0570   -6.6340 O.2   110  ILE110     -0.2867
    137  CB        29.9740   63.9070   -6.9590 C.3   110  ILE110      0.0252
    138  CG1       31.0610   63.0120   -6.3410 C.3   110  ILE110      0.0019
    139  CG2       29.2780   64.6850   -5.8550 C.3   110  ILE110      0.0019
    140  CD1       32.0290   62.4800   -7.3810 C.3   110  ILE110      0.0001
    141  N         25.4050   60.4840   -8.2880 N.3   113  ILE113     -0.1231
    142  CA        25.6100   59.5910   -7.1640 C.3   113  ILE113      0.1692
    143  C         24.7240   59.9990   -6.0010 C.2   113  ILE113      0.2592
    144  O         24.1270   59.1160   -5.3830 O.2   113  ILE113     -0.2718
    145  CB        27.0700   59.5180   -6.6910 C.3   113  ILE113      0.0266
    146  CG1       27.9020   58.5440   -7.5360 C.3   113  ILE113      0.0019
    147  CG2       27.1570   59.1600   -5.2140 C.3   113  ILE113      0.0020
    148  CD1       29.3960   58.7110   -7.3870 C.3   113  ILE113      0.0001
    149  N         24.6280   61.2880   -5.6790 N.am  114  HIS114     -0.1976
    150  CA        23.8320   61.6140   -4.4910 C.3   114  HIS114      0.1656
    151  C         22.3570   61.4500   -4.8580 C.2   114  HIS114      0.2291
    152  O         21.4690   61.1780   -4.0540 O.2   114  HIS114     -0.2864
    153  CB        24.1350   63.0290   -3.9990 C.3   114  HIS114      0.0771
    154  CG        25.4990   63.1150   -3.3810 C.ar  114  HIS114      0.0820
    155  ND1       26.6420   63.2870   -4.1330 N.ar  114  HIS114     -0.2267
    156  CD2       25.8990   63.0250   -2.0910 C.ar  114  HIS114      0.1154
    157  CE1       27.6840   63.3100   -3.3150 C.ar  114  HIS114      0.1986
    158  NE2       27.2650   63.1610   -2.0710 N.ar  114  HIS114     -0.2212
    159  N         21.0800   59.0860   -6.8050 N.3   116  ARG116     -0.1231
    160  CA        20.8780   57.6600   -6.6800 C.3   116  ARG116      0.1694
    161  C         20.5740   57.2000   -5.2630 C.2   116  ARG116      0.2591
    162  O         19.5680   56.5170   -5.0370 O.2   116  ARG116     -0.2718
    163  CB        22.1260   56.8910   -7.1600 C.3   116  ARG116      0.0321
    164  CG        21.7750   55.4560   -7.5360 C.3   116  ARG116      0.0489
    165  CD        22.9970   54.5600   -7.6210 C.3   116  ARG116      0.2205
    166  NE        23.7190   54.5010   -6.3510 N.pl3 116  ARG116     -0.0865
    167  CZ        25.0260   54.6850   -6.2050 C.cat 116  ARG116      0.5346
    168  NH1       25.5780   54.6090   -5.0010 N.pl3 116  ARG116      0.1354
    169  NH2       25.8020   54.9480   -7.2490 N.pl3 116  ARG116      0.1354
    170  N         21.4550   57.5640   -4.3350 N.am  117  ILE117     -0.1980
    171  CA        21.3440   57.1350   -2.9390 C.3   117  ILE117      0.1595
    172  C         20.2160   57.8680   -2.2300 C.2   117  ILE117      0.2287
    173  O         19.9600   57.6120   -1.0580 O.2   117  ILE117     -0.2864
    174  CB        22.6620   57.3640   -2.1920 C.3   117  ILE117      0.0276
    175  CG1       22.8070   58.7740   -1.6270 C.3   117  ILE117      0.0022
    176  CG2       23.8320   57.0150   -3.1030 C.3   117  ILE117      0.0022
    177  CD1       24.1660   59.1320   -1.0800 C.3   117  ILE117      0.0001
    178  N         19.7970   61.4200   -1.6920 N.3   119  LEU119     -0.1245
    179  CA        19.9750   62.6380   -0.8810 C.3   119  LEU119      0.1561
    180  C         18.9690   63.6910   -1.3320 C.2   119  LEU119      0.2260
    181  O         18.8020   63.8630   -2.5290 O.2   119  LEU119     -0.2867
    182  CB        21.3710   63.2180   -1.0000 C.3   119  LEU119      0.0270
    183  CG        21.6580   64.5020   -0.2170 C.3   119  LEU119      0.0019
    184  CD1       21.6510   64.2250    1.2750 C.3   119  LEU119      0.0001
    185  CD2       22.9950   65.0980   -0.6540 C.3   119  LEU119      0.0001
    186  N         19.1740   69.0730    1.9150 N.3   123  TRP123     -0.1227
    187  CA        20.2750   68.7370    2.8270 C.3   123  TRP123      0.1737
    188  C         21.6060   68.9080    2.0920 C.2   123  TRP123      0.2595
    189  O         22.5980   69.3540    2.6650 O.2   123  TRP123     -0.2718
    190  CB        20.1500   67.3290    3.4000 C.3   123  TRP123      0.0564
    191  CG        18.8520   67.0850    4.1160 C.ar  123  TRP123      0.0003
    192  CD1       17.8410   66.2590    3.6880 C.ar  123  TRP123      0.0946
    193  CD2       18.4080   67.6470    5.3570 C.ar  123  TRP123      0.0152
    194  NE1       16.8050   66.2790    4.5880 N.ar  123  TRP123     -0.2442
    195  CE2       17.1250   67.1220    5.6250 C.ar  123  TRP123      0.0810
    196  CE3       18.9620   68.5420    6.2810 C.ar  123  TRP123      0.0012
    197  CZ2       16.3870   67.4540    6.7610 C.ar  123  TRP123      0.0191
    198  CZ3       18.2270   68.8670    7.4030 C.ar  123  TRP123      0.0001
    199  CH2       16.9480   68.3300    7.6480 C.ar  123  TRP123      0.0015
    200  N         21.6760   68.5530    0.8140 N.am  124  TYR124     -0.1976
    201  CA        22.8900   68.7730    0.0240 C.3   124  TYR124      0.1639
    202  C         23.3050   70.2390    0.1130 C.2   124  TYR124      0.2290
    203  O         24.4310   70.5920    0.4450 O.2   124  TYR124     -0.2864
    204  CB        22.6220   68.3650   -1.4110 C.3   124  TYR124      0.0560
    205  CG        23.7360   67.9060   -2.3130 C.ar  124  TYR124     -0.0198
    206  CD1       25.0810   68.1090   -2.0660 C.ar  124  TYR124     -0.0009
    207  CD2       23.4160   67.2190   -3.4920 C.ar  124  TYR124     -0.0009
    208  CE1       26.0760   67.6680   -2.9250 C.ar  124  TYR124      0.0417
    209  CE2       24.3910   66.7710   -4.3600 C.ar  124  TYR124      0.0417
    210  CZ        25.7270   66.9950   -4.0750 C.ar  124  TYR124      0.1957
    211  OH        26.6910   66.5430   -4.9510 O.3   124  TYR124     -0.2866
    212  N         24.5700   71.5450    3.4680 N.3   127  ALA127     -0.1231
    213  CA        25.8290   70.9700    3.9160 C.3   127  ALA127      0.1694
    214  C         27.0110   71.8130    3.4550 C.2   127  ALA127      0.2592
    215  O         28.0460   71.8450    4.1200 O.2   127  ALA127     -0.2718
    216  CB        25.9150   69.5250    3.4230 C.3   127  ALA127      0.0304
    217  N         26.8880   72.5020    2.3270 N.am  128  PHE128     -0.1976
    218  CA        27.9560   73.3710    1.8490 C.3   128  PHE128      0.1639
    219  C         28.2000   74.5510    2.7890 C.2   128  PHE128      0.2290
    220  O         29.2320   75.2200    2.7230 O.2   128  PHE128     -0.2864
    221  CB        27.6270   73.9310    0.4730 C.3   128  PHE128      0.0560
    222  CG        27.8830   73.0290   -0.7070 C.ar  128  PHE128     -0.0200
    223  CD1       26.8410   72.3210   -1.2890 C.ar  128  PHE128     -0.0042
    224  CD2       29.1620   72.8990   -1.2270 C.ar  128  PHE128     -0.0042
    225  CE1       27.0680   71.5010   -2.3790 C.ar  128  PHE128     -0.0003
    226  CE2       29.3970   72.0870   -2.3220 C.ar  128  PHE128     -0.0003
    227  CZ        28.3470   71.3950   -2.9030 C.ar  128  PHE128     -0.0000
    228  N         30.9480   74.0000    5.2920 N.3   131  LEU131     -0.1245
    229  CA        32.2680   74.1070    4.6680 C.3   131  LEU131      0.1561
    230  C         32.7190   75.5670    4.6550 C.2   131  LEU131      0.2260
    231  O         33.8390   75.9230    5.0090 O.2   131  LEU131     -0.2867
    232  CB        32.2030   73.5170    3.2620 C.3   131  LEU131      0.0270
    233  CG        31.9540   72.0160    3.1040 C.3   131  LEU131      0.0019
    234  CD1       32.0380   71.5890    1.6400 C.3   131  LEU131      0.0001
    235  CD2       32.9430   71.1970    3.9230 C.3   131  LEU131      0.0001
    236  N         29.8900   75.0270   -7.4760 N.3   163  GLU163     -0.1245
    237  CA        29.6440   73.6640   -7.0110 C.3   163  GLU163      0.1567
    238  C         28.1460   73.3980   -6.8940 C.2   163  GLU163      0.2260
    239  O         27.5980   72.4210   -7.4190 O.2   163  GLU163     -0.2867
    240  CB        30.3210   73.4360   -5.6590 C.3   163  GLU163      0.0388
    241  CG        31.7760   73.0750   -5.6160 C.3   163  GLU163      0.1160
    242  CD        32.1840   71.7680   -6.2550 C.2   163  GLU163      0.3649
    243  OE1       33.1580   71.8030   -7.0420 O.co2 163  GLU163     -0.2457
    244  OE2       31.5850   70.6970   -6.0090 O.co2 163  GLU163     -0.2457
@<TRIPOS>BOND
     1   124   125    1
     2   125   128    1
     3   125   126    1
     4   128   129    1
     5   126   127    2
     6   129   130    1
     7   130   131    1
     8   133   134    1
     9   141   142    1
    10   131   132    1
    11   134   135    1
    12   134   137    1
    13   165   164    1
    14   165   166    1
    15   135   136    2
    16   164   163    1
    17   146   148    1
    18   146   145    1
    19   236   237    1
    20   239   238    2
    21   140   138    1
    22   169   167    1
    23   142   145    1
    24   142   143    1
    25   163   160    1
    26   243   242   ar
    27   237   238    1
    28   237   240    1
    29   137   138    1
    30   137   139    1
    31   159   160    1
    32   145   147    1
    33   160   161    1
    34   166   167    2
    35   242   244   ar
    36   242   241    1
    37   167   168    1
    38   119   118    2
    39   143   149   am
    40   143   144    2
    41   115   113   ar
    42   115   114   ar
    43   149   150    1
    44   240   241    1
    45   118   117    1
    46   117   116    1
    47   117   120    1
    48   113   111   ar
    49   161   162    2
    50   161   170   am
    51   114   112   ar
    52   211   210    1
    53   151   150    1
    54   151   152    2
    55   150   153    1
    56   121   120    1
    57   121   122    1
    58   209   210   ar
    59   209   207   ar
    60   170   171    1
    61   111   112   ar
    62   111   110    1
    63   155   154   ar
    64   155   157   ar
    65   210   208   ar
    66   153   154    1
    67   109   108    2
    68   107   110    1
    69   107   108    1
    70   107   106    1
    71   207   205   ar
    72   154   156   ar
    73   157   158   ar
    74   176   174    1
    75   171   172    1
    76   171   174    1
    77   208   206   ar
    78   227   225   ar
    79   227   226   ar
    80   122   123    1
    81   181   180    2
    82   225   223   ar
    83   226   224   ar
    84   205   206   ar
    85   205   204    1
    86   172   173    2
    87   174   175    1
    88   156   158   ar
    89    97    95    1
    90   178   179    1
    91   175   177    1
    92    94    93    2
    93    64    62   ar
    94    64    65   ar
    95   204   201    1
    96    95    92    1
    97    95    96    1
    98   180   179    1
    99   223   222   ar
   100   224   222   ar
   101    62    61   ar
   102   182   179    1
   103   182   183    1
   104    92    93    1
   105    92    91    1
   106   222   221    1
   107   185   183    1
   108    93    98   am
   109    65    63   ar
   110   183   184    1
   111   201   202    1
   112   201   200    1
   113    61    63   ar
   114    61    60    1
   115   202   203    2
   116   101   100    2
   117    81    80    1
   118   221   218    1
   119    98    99    1
   120    60    57    1
   121    99   100    1
   122    99   102    1
   123   200   188   am
   124   104   103    1
   125    59    58    2
   126    79    80    2
   127    79    78    1
   128    89    88    1
   129    80    82    1
   130   234   233    1
   131    57    58    1
   132    57    56    1
   133   218   217    1
   134   218   219    1
   135   186   187    1
   136    58    66   am
   137   102   103    1
   138    46    44    1
   139   188   189    2
   140   188   187    1
   141   103   105    1
   142    86    85    2
   143    78    77    1
   144   217   214   am
   145    71    70    1
   146    88    90    1
   147    88    87    1
   148    75    74    2
   149    47    45    1
   150    77    76    1
   151    70    67    1
   152   220   219    2
   153   187   190    1
   154    84    85    1
   155    84    87    1
   156    84    83    1
   157   233   232    1
   158   233   235    1
   159    66    67    1
   160   232   229    1
   161    43    42    2
   162    67    68    1
   163    11    10   ar
   164    11     9   ar
   165   190   191    1
   166   216   213    1
   167    74    83   am
   168    74    73    1
   169   214   213    1
   170   214   215    2
   171   212   213    1
   172    44    45    1
   173    44    41    1
   174    23    22    1
   175   192   191   ar
   176   192   194   ar
   177    10     8   ar
   178    76    73    1
   179     9     7   ar
   180   191   193   ar
   181    42    41    1
   182    42    48   am
   183    41    40    1
   184    73    72    1
   185   194   195   ar
   186    51    50    2
   187   230   229    1
   188   230   231    2
   189    39    37    1
   190   229   228    1
   191    68    69    2
   192     8     6   ar
   193    49    48    1
   194    49    50    1
   195    49    52    1
   196    22    20   ar
   197    22    21   ar
   198    53    52    1
   199    53    55    1
   200     7     6   ar
   201   193   195   ar
   202   193   196   ar
   203    20    18   ar
   204     6     5    1
   205   195   197   ar
   206    52    54    1
   207    21    19   ar
   208    35    34    2
   209    37    38    1
   210    37    36    1
   211    30    29    1
   212   196   198   ar
   213    33    36    1
   214    33    34    1
   215    33    32    1
   216    31    29    1
   217    18    17   ar
   218     5     2    1
   219   197   199   ar
   220    19    17   ar
   221    29    28    1
   222   198   199   ar
   223    17    16    1
   224     2     3    1
   225     2     1    1
   226    28    25    1
   227     4     3    2
   228     3    12   am
   229    12    13    1
   230    16    13    1
   231    13    14    1
   232    25    24    1
   233    25    26    1
   234    27    26    2
   235    14    15    2
