@<TRIPOS>MOLECULE
tmp/1ordB00.pdb
 118 111 0 0 0
SMALL
GASTEIGER

@<TRIPOS>ATOM
      1  N         63.6590   23.7640   51.9590 N.3   196  GLY196     -0.1210
      2  CA        64.6750   22.7660   51.6560 C.3   196  GLY196      0.1956
      3  C         65.2470   22.1140   52.9160 C.2   196  GLY196      0.2612
      4  O         66.3530   21.5760   52.9020 O.2   196  GLY196     -0.2717
      5  N         64.4840   22.1660   54.0040 N.am  197  GLY197     -0.1942
      6  CA        64.8930   21.6050   55.2780 C.3   197  GLY197      0.2014
      7  C         65.8640   22.5130   55.9890 C.2   197  GLY197      0.2640
      8  O         66.5280   23.3250   55.3530 O.2   197  GLY197     -0.2714
      9  N         65.9280   22.4130   57.3090 N.am  198  SER198     -0.1935
     10  CA        66.8770   23.2100   58.0730 C.3   198  SER198      0.2055
     11  C         68.3230   22.9730   57.5750 C.2   198  SER198      0.2643
     12  O         69.2340   23.7560   57.8450 O.2   198  SER198     -0.2714
     13  CB        66.7230   22.9260   59.5580 C.3   198  SER198      0.2130
     14  OG        65.4570   23.3980   59.9590 O.3   198  SER198     -0.2179
     15  N         68.5110   21.8980   56.8220 N.am  199  SER199     -0.1949
     16  CA        69.7910   21.5950   56.2310 C.3   199  SER199      0.1924
     17  C         70.0580   22.8120   55.4060 C.2   199  SER199      0.2314
     18  O         70.8270   23.6540   55.8160 O.2   199  SER199     -0.2863
     19  CB        69.6940   20.3610   55.3390 C.3   199  SER199      0.2116
     20  OG        69.3250   19.2240   56.1180 O.3   199  SER199     -0.2180
     21  N         70.4730   26.2520   57.2870 N.3   202  ASN202     -0.1240
     22  CA        71.7920   26.5620   57.8390 C.3   202  ASN202      0.1653
     23  C         72.7010   27.0500   56.7120 C.2   202  ASN202      0.2266
     24  O         73.4100   28.0220   56.8730 O.2   202  ASN202     -0.2867
     25  CB        72.4160   25.3320   58.4860 C.3   202  ASN202      0.1155
     26  CG        71.8490   25.0230   59.8530 C.2   202  ASN202      0.2627
     27  OD1       71.9300   23.8930   60.3140 O.2   202  ASN202     -0.2716
     28  ND2       71.3390   26.0290   60.5390 N.am  202  ASN202     -0.0877
     29  N         74.9100   19.2920   63.8250 N.3   223  HIS223     -0.1241
     30  CA        74.4060   18.4840   62.7460 C.3   223  HIS223      0.1621
     31  C         75.3530   18.6580   61.5730 C.2   223  HIS223      0.2264
     32  O         75.9230   19.7540   61.3750 O.2   223  HIS223     -0.2867
     33  CB        73.0280   19.0240   62.3750 C.3   223  HIS223      0.0745
     34  CG        72.2850   18.1930   61.3830 C.ar  223  HIS223      0.0817
     35  ND1       72.3570   18.4050   60.0240 N.ar  223  HIS223     -0.2268
     36  CD2       71.4050   17.1790   61.5580 C.ar  223  HIS223      0.1154
     37  CE1       71.5570   17.5550   59.4070 C.ar  223  HIS223      0.1986
     38  NE2       70.9660   16.8040   60.3150 N.ar  223  HIS223     -0.2212
     39  N         74.9290   19.3510   58.7520 N.3   225  SER225     -0.1217
     40  CA        74.5670   20.5580   58.0020 C.3   225  SER225      0.1889
     41  C         75.3740   21.8080   58.4200 C.2   225  SER225      0.2288
     42  O         75.7060   22.6310   57.5870 O.2   225  SER225     -0.2866
     43  CB        73.0390   20.7930   58.0640 C.3   225  SER225      0.2089
     44  OG        72.5240   20.8340   59.3990 O.3   225  SER225     -0.2183
     45  N         73.5440   24.3100   69.3710 N.3   288  GLN288     -0.1245
     46  CA        72.3390   23.4710   69.2810 C.3   288  GLN288      0.1566
     47  C         71.4340   23.7030   70.4750 C.2   288  GLN288      0.2260
     48  O         71.6250   23.1000   71.5210 O.2   288  GLN288     -0.2867
     49  CB        72.7550   22.0000   69.2430 C.3   288  GLN288      0.0367
     50  CG        71.6670   21.0550   68.9210 C.3   288  GLN288      0.0905
     51  CD        72.1490   19.8850   68.0970 C.2   288  GLN288      0.2608
     52  OE1       72.0880   18.7390   68.5580 O.2   288  GLN288     -0.2717
     53  NE2       72.6080   20.1520   66.8660 N.am  288  GLN288     -0.0878
     54  N         68.4530   22.7470   71.3580 N.3   290  GLY290     -0.1225
     55  CA        67.8480   21.5690   71.9240 C.3   290  GLY290      0.1811
     56  C         68.3450   20.4300   71.0880 C.2   290  GLY290      0.2280
     57  O         68.2680   20.5130   69.8400 O.2   290  GLY290     -0.2866
     58  N         70.5590   26.6110   66.3500 N.3   316  ASP316     -0.1239
     59  CA        70.0410   25.5840   65.4690 C.3   316  ASP316      0.1674
     60  C         69.0430   24.9010   66.3700 C.2   316  ASP316      0.2266
     61  O         69.4220   24.1120   67.2070 O.2   316  ASP316     -0.2867
     62  CB        71.1620   24.6240   65.0710 C.3   316  ASP316      0.1410
     63  CG        70.6770   23.4640   64.1990 C.2   316  ASP316      0.3668
     64  OD1       69.4580   23.3180   63.9460 O.co2 316  ASP316     -0.2456
     65  OD2       71.5320   22.6560   63.7810 O.co2 316  ASP316     -0.2456
     66  N         66.2150   22.9160   65.4960 N.3   318  ALA318     -0.1231
     67  CA        65.3630   22.0130   64.7610 C.3   318  ALA318      0.1694
     68  C         64.6340   21.0840   65.7000 C.2   318  ALA318      0.2592
     69  O         63.4840   20.7360   65.4750 O.2   318  ALA318     -0.2718
     70  CB        66.1560   21.2330   63.7660 C.3   318  ALA318      0.0304
     71  N         65.2630   20.7050   66.7950 N.am  319  TRP319     -0.1976
     72  CA        64.5680   19.8020   67.7000 C.3   319  TRP319      0.1640
     73  C         63.5510   20.4590   68.6300 C.2   319  TRP319      0.2290
     74  O         62.9390   19.7930   69.4620 O.2   319  TRP319     -0.2864
     75  CB        65.5760   18.9600   68.4640 C.3   319  TRP319      0.0576
     76  CG        66.0800   17.9010   67.5990 C.ar  319  TRP319      0.0006
     77  CD1       67.3450   17.7410   67.1580 C.ar  319  TRP319      0.0946
     78  CD2       65.3090   16.8620   67.0050 C.ar  319  TRP319      0.0152
     79  NE1       67.4180   16.6640   66.3130 N.ar  319  TRP319     -0.2442
     80  CE2       66.1720   16.1050   66.2070 C.ar  319  TRP319      0.0810
     81  CE3       63.9600   16.4900   67.0710 C.ar  319  TRP319      0.0012
     82  CZ2       65.7360   15.0030   65.4840 C.ar  319  TRP319      0.0191
     83  CZ3       63.5340   15.3910   66.3520 C.ar  319  TRP319      0.0001
     84  CH2       64.4150   14.6630   65.5700 C.ar  319  TRP319      0.0015
     85  N         63.2770   23.4630   62.1200 N.3   352  SER352     -0.1217
     86  CA        62.6110   22.5510   61.2040 C.3   352  SER352      0.1889
     87  C         61.1500   22.5370   61.6050 C.2   352  SER352      0.2288
     88  O         60.8000   21.9530   62.6230 O.2   352  SER352     -0.2866
     89  CB        63.1880   21.1430   61.3580 C.3   352  SER352      0.2089
     90  OG        64.5650   21.1110   61.0180 O.3   352  SER352     -0.2183
     91  N         58.8260   20.9080   60.3120 N.3   354  HIS354     -0.1226
     92  CA        58.2560   19.5760   60.1660 C.3   354  HIS354      0.1752
     93  C         58.5720   18.6630   61.3330 C.2   354  HIS354      0.2595
     94  O         57.7510   17.8430   61.7080 O.2   354  HIS354     -0.2718
     95  CB        58.7440   18.9060   58.8960 C.3   354  HIS354      0.0759
     96  CG        60.2160   18.6400   58.8760 C.ar  354  HIS354      0.0818
     97  ND1       61.1480   19.5980   58.5400 N.ar  354  HIS354     -0.2268
     98  CD2       60.9120   17.5090   59.1050 C.ar  354  HIS354      0.1154
     99  CE1       62.3510   19.0670   58.5630 C.ar  354  HIS354      0.1986
    100  NE2       62.2380   17.8000   58.9010 N.ar  354  HIS354     -0.2212
    101  N         59.7520   18.8030   61.9160 N.am  355  LYS355     -0.1980
    102  CA        60.1470   17.9370   63.0230 C.3   355  LYS355      0.1596
    103  C         59.1790   17.8740   64.1910 C.2   355  LYS355      0.2287
    104  O         58.5110   16.8570   64.3590 O.2   355  LYS355     -0.2864
    105  CB        61.5710   18.2380   63.4940 C.3   355  LYS355      0.0298
    106  CG        62.6180   17.7170   62.5210 C.3   355  LYS355      0.0038
    107  CD        64.0060   17.7960   63.0610 C.3   355  LYS355      0.0206
    108  CE        64.9750   17.0820   62.1500 C.3   355  LYS355      0.1093
    109  NZ        66.1640   17.7060   62.3900 N.3   355  LYS355     -0.1314
    110  N         60.7050   18.8400   55.0750 N.3   362  GLN362     -0.1245
    111  CA        61.4560   19.8270   54.3020 C.3   362  GLN362      0.1566
    112  C         61.0240   21.2840   54.5570 C.2   362  GLN362      0.2260
    113  O         61.4930   22.1820   53.8660 O.2   362  GLN362     -0.2867
    114  CB        61.4220   19.5520   52.7890 C.3   362  GLN362      0.0367
    115  CG        62.2060   18.3640   52.3450 C.3   362  GLN362      0.0905
    116  CD        62.3220   18.2380   50.8350 C.2   362  GLN362      0.2608
    117  OE1       62.6150   17.1690   50.3340 O.2   362  GLN362     -0.2717
    118  NE2       62.1040   19.3160   50.1120 N.am  362  GLN362     -0.0878
@<TRIPOS>BOND
     1   118   116   am
     2   117   116    2
     3   116   115    1
     4     2     1    1
     5     2     3    1
     6   115   114    1
     7   114   111    1
     8     4     3    2
     9     3     5   am
    10   113   112    2
    11     5     6    1
    12   111   112    1
    13   111   110    1
    14     6     7    1
    15    19    20    1
    16    19    16    1
    17     8     7    2
    18    17    18    2
    19    17    16    1
    20     7     9   am
    21    16    15    1
    22    23    24    2
    23    23    22    1
    24    15    11   am
    25    21    22    1
    26     9    10    1
    27    11    12    2
    28    11    10    1
    29    42    41    2
    30    22    25    1
    31    40    43    1
    32    40    41    1
    33    40    39    1
    34    43    44    1
    35    10    13    1
    36    25    26    1
    37    97    99   ar
    38    97    96   ar
    39    99   100   ar
    40    96    95    1
    41    96    98   ar
    42    95    92    1
    43   100    98   ar
    44    37    35   ar
    45    37    38   ar
    46    13    14    1
    47    26    27    2
    48    26    28   am
    49    35    34   ar
    50    92    91    1
    51    92    93    1
    52    38    36   ar
    53    90    89    1
    54    86    89    1
    55    86    87    1
    56    86    85    1
    57    93    94    2
    58    93   101   am
    59    32    31    2
    60    34    36   ar
    61    34    33    1
    62    31    30    1
    63    87    88    2
    64   101   102    1
    65   108   109    1
    66   108   107    1
    67    33    30    1
    68   106   107    1
    69   106   105    1
    70    30    29    1
    71   102   105    1
    72   102   103    1
    73    70    67    1
    74    65    63   ar
    75    64    63   ar
    76   103   104    2
    77    63    62    1
    78    67    66    1
    79    67    68    1
    80    62    59    1
    81    59    58    1
    82    59    60    1
    83    69    68    2
    84    82    84   ar
    85    82    80   ar
    86    84    83   ar
    87    68    71   am
    88    80    79   ar
    89    80    78   ar
    90    79    77   ar
    91    83    81   ar
    92    60    61    2
    93    71    72    1
    94    53    51   am
    95    78    81   ar
    96    78    76   ar
    97    77    76   ar
    98    76    75    1
    99    72    75    1
   100    72    73    1
   101    51    52    2
   102    51    50    1
   103    73    74    2
   104    50    49    1
   105    49    46    1
   106    46    45    1
   107    46    47    1
   108    57    56    2
   109    47    48    2
   110    56    55    1
   111    54    55    1
