@<TRIPOS>MOLECULE
tmp/1oreA00.pdb
 151 144 0 0 0
SMALL
GASTEIGER

@<TRIPOS>ATOM
      1  N          1.1040   29.3850   33.5850 N.3    23  VAL23      -0.1231
      2  CA         2.3390   28.9860   32.8950 C.3    23  VAL23       0.1692
      3  C          3.3640   28.4620   33.9390 C.2    23  VAL23       0.2592
      4  O          3.6630   29.1430   34.9280 O.2    23  VAL23      -0.2718
      5  CB         2.9330   30.1420   32.0220 C.3    23  VAL23       0.0266
      6  CG1        4.3040   29.7860   31.4450 C.3    23  VAL23       0.0020
      7  CG2        1.9960   30.4670   30.8420 C.3    23  VAL23       0.0020
      8  N          3.8810   27.2590   33.7130 N.am   24  VAL24      -0.1966
      9  CA         4.9230   26.6990   34.5690 C.3    24  VAL24       0.1727
     10  C          6.2760   27.0400   33.9620 C.2    24  VAL24       0.2616
     11  O          6.6410   26.5540   32.8870 O.2    24  VAL24      -0.2715
     12  CB         4.7600   25.1800   34.7670 C.3    24  VAL24       0.0290
     13  CG1        5.8530   24.6130   35.6700 C.3    24  VAL24       0.0023
     14  CG2        3.3400   24.8800   35.3700 C.3    24  VAL24       0.0023
     15  N          7.0360   27.8670   34.6670 N.am   25  PHE25      -0.1960
     16  CA         8.3470   28.2360   34.2210 C.3    25  PHE25       0.1771
     17  C          9.3240   27.1160   34.5530 C.2    25  PHE25       0.2619
     18  O          9.4310   26.7050   35.7010 O.2    25  PHE25      -0.2715
     19  CB         8.7650   29.5430   34.8920 C.3    25  PHE25       0.0574
     20  CG        10.0580   30.1120   34.3750 C.ar   25  PHE25      -0.0200
     21  CD1       10.0710   30.9770   33.2670 C.ar   25  PHE25      -0.0042
     22  CD2       11.2560   29.8110   35.0040 C.ar   25  PHE25      -0.0042
     23  CE1       11.2890   31.5410   32.7820 C.ar   25  PHE25      -0.0003
     24  CE2       12.4840   30.3470   34.5230 C.ar   25  PHE25      -0.0003
     25  CZ        12.4930   31.2170   33.3930 C.ar   25  PHE25      -0.0000
     26  N         10.0730   26.6660   33.5520 N.am   26  ARG26      -0.1977
     27  CA        11.1320   25.6790   33.7450 C.3    26  ARG26       0.1597
     28  C         12.4970   26.3840   33.7500 C.2    26  ARG26       0.2287
     29  O         12.9030   26.9670   32.7610 O.2    26  ARG26      -0.2864
     30  CB        11.0920   24.6580   32.6110 C.3    26  ARG26       0.0334
     31  CG         9.7200   24.0500   32.3660 C.3    26  ARG26       0.0492
     32  CD         9.1210   23.3630   33.5890 C.3    26  ARG26       0.2205
     33  NE         7.8530   22.7190   33.2700 N.pl3  26  ARG26      -0.0865
     34  CZ         7.3140   21.7110   33.9680 C.cat  26  ARG26       0.5346
     35  NH1        7.9000   21.1720   35.0710 N.pl3  26  ARG26       0.1354
     36  NH2        6.1950   21.1920   33.5130 N.pl3  26  ARG26       0.1354
     37  N         19.4070   34.4600   22.2110 N.3    64  ASP64      -0.1239
     38  CA        19.5240   35.3910   23.3280 C.3    64  ASP64       0.1674
     39  C         18.2900   35.1410   24.2120 C.2    64  ASP64       0.2266
     40  O         17.1800   35.0400   23.6650 O.2    64  ASP64      -0.2867
     41  CB        19.4830   36.7810   22.6940 C.3    64  ASP64       0.1410
     42  CG        19.5920   37.9250   23.6930 C.2    64  ASP64       0.3668
     43  OD1       19.4900   39.0610   23.1940 O.co2  64  ASP64      -0.2456
     44  OD2       19.7920   37.7790   24.9480 O.co2  64  ASP64      -0.2456
     45  N         19.0660   32.8250   27.0540 N.3    66  ARG66      -0.1245
     46  CA        19.4090   31.5190   27.6490 C.3    66  ARG66       0.1563
     47  C         20.0770   30.5380   26.7110 C.2    66  ARG66       0.2260
     48  O         20.8380   29.7020   27.1680 O.2    66  ARG66      -0.2867
     49  CB        18.2000   30.9150   28.3490 C.3    66  ARG66       0.0307
     50  CG        17.7950   31.8040   29.5260 C.3    66  ARG66       0.0489
     51  CD        16.8590   31.2080   30.5290 C.3    66  ARG66       0.2205
     52  NE        15.4780   31.0730   30.0520 N.pl3  66  ARG66      -0.0865
     53  CZ        14.5080   31.9690   30.1950 C.cat  66  ARG66       0.5346
     54  NH1       14.7300   33.1340   30.7670 N.pl3  66  ARG66       0.1354
     55  NH2       13.2860   31.7050   29.7490 N.pl3  66  ARG66       0.1354
     56  N          2.2590   36.4350   18.0450 N.3   102  LEU102     -0.1245
     57  CA         1.7080   35.1020   18.2710 C.3   102  LEU102      0.1561
     58  C          0.6230   35.1650   19.3160 C.2   102  LEU102      0.2260
     59  O          0.4600   36.1780   19.9970 O.2   102  LEU102     -0.2867
     60  CB         2.8040   34.1350   18.7010 C.3   102  LEU102      0.0270
     61  CG         4.0880   34.2710   17.8460 C.3   102  LEU102      0.0019
     62  CD1        5.3540   33.9500   18.6180 C.3   102  LEU102      0.0001
     63  CD2        3.9710   33.4410   16.5980 C.3   102  LEU102      0.0001
     64  N          7.6430   36.9720   19.3320 N.3   107  ALA107     -0.1245
     65  CA         9.0330   36.5660   19.1300 C.3   107  ALA107      0.1562
     66  C          9.6870   37.5950   18.1970 C.2   107  ALA107      0.2260
     67  O          9.3540   37.6880   17.0140 O.2   107  ALA107     -0.2867
     68  CB         9.0940   35.2010   18.5300 C.3   107  ALA107      0.0290
     69  N         18.6050   26.6850   21.9540 N.3   126  ASP126     -0.1225
     70  CA        18.0030   27.4710   23.0380 C.3   126  ASP126      0.1805
     71  C         17.8070   26.5470   24.2320 C.2   126  ASP126      0.2598
     72  O         17.9490   25.3030   24.1140 O.2   126  ASP126     -0.2718
     73  CB        16.6460   28.0340   22.5850 C.3   126  ASP126      0.1424
     74  CG        16.2920   29.3850   23.2580 C.2   126  ASP126      0.3668
     75  OD1       17.0400   29.8950   24.1400 O.co2 126  ASP126     -0.2456
     76  OD2       15.2400   29.9680   22.9690 O.co2 126  ASP126     -0.2456
     77  N         17.4940   27.1280   25.3750 N.am  127  ASP127     -0.1960
     78  CA        17.2400   26.3230   26.5770 C.3   127  ASP127      0.1840
     79  C         15.9930   25.4520   26.4500 C.2   127  ASP127      0.2622
     80  O         16.0290   24.2870   26.8620 O.2   127  ASP127     -0.2715
     81  CB        17.2390   27.1540   27.8630 C.3   127  ASP127      0.1450
     82  CG        16.0830   28.1430   27.9550 C.2   127  ASP127      0.3671
     83  OD1       15.6860   28.4180   29.1210 O.co2 127  ASP127     -0.2456
     84  OD2       15.4970   28.6520   26.9710 O.co2 127  ASP127     -0.2456
     85  N         14.9710   25.9750   25.7810 N.am  128  LEU128     -0.1963
     86  CA        13.6310   25.4050   25.8510 C.3   128  LEU128      0.1728
     87  C         12.8090   25.7580   24.6100 C.2   128  LEU128      0.2616
     88  O         12.8320   26.8720   24.1330 O.2   128  LEU128     -0.2715
     89  CB        12.8900   25.9330   27.0950 C.3   128  LEU128      0.0311
     90  CG        11.4800   25.4250   27.4320 C.3   128  LEU128      0.0022
     91  CD1       11.2470   25.4310   28.9830 C.3   128  LEU128      0.0001
     92  CD2       10.3930   26.2520   26.7600 C.3   128  LEU128      0.0001
     93  N         12.0840   24.7610   24.1380 N.am  129  LEU129     -0.1963
     94  CA        11.1040   24.8540   23.0820 C.3   129  LEU129      0.1728
     95  C          9.6870   24.7320   23.6670 C.2   129  LEU129      0.2616
     96  O          9.3520   23.7730   24.3560 O.2   129  LEU129     -0.2715
     97  CB        11.3090   23.7310   22.0490 C.3   129  LEU129      0.0311
     98  CG        10.3080   23.7920   20.8870 C.3   129  LEU129      0.0022
     99  CD1       10.7020   24.9240   19.9500 C.3   129  LEU129      0.0001
    100  CD2       10.2470   22.4590   20.1620 C.3   129  LEU129      0.0001
    101  N          8.8710   25.7250   23.3660 N.am  130  ALA130     -0.1963
    102  CA         7.4830   25.7600   23.7550 C.3   130  ALA130      0.1728
    103  C          6.6830   25.8000   22.4550 C.2   130  ALA130      0.2617
    104  O          6.5980   24.7660   21.7880 O.2   130  ALA130     -0.2715
    105  CB         7.2200   26.9700   24.7070 C.3   130  ALA130      0.0334
    106  N          6.1130   26.9510   22.0720 N.am  131  THR131     -0.1937
    107  CA         5.3010   27.0330   20.8270 C.3   131  THR131      0.2028
    108  C          6.1560   26.8940   19.5670 C.2   131  THR131      0.2643
    109  O          5.6350   26.4940   18.5230 O.2   131  THR131     -0.2714
    110  CB         4.5250   28.3600   20.6840 C.3   131  THR131      0.1808
    111  OG1        5.4420   29.4680   20.5970 O.3   131  THR131     -0.2208
    112  CG2        3.5780   28.6730   21.8780 C.3   131  THR131      0.0379
    113  N          7.4600   27.1840   19.6670 N.am  132  GLY132     -0.1939
    114  CA         8.3310   27.2630   18.4880 C.3   132  GLY132      0.2014
    115  C          8.4140   28.6210   17.7860 C.2   132  GLY132      0.2639
    116  O          9.1500   28.7850   16.7970 O.2   132  GLY132     -0.2714
    117  N          7.6810   29.6060   18.2990 N.am  133  GLY133     -0.1939
    118  CA         7.6990   30.9500   17.7770 C.3   133  GLY133      0.2014
    119  C          9.0940   31.5360   17.6770 C.2   133  GLY133      0.2640
    120  O          9.4650   32.1300   16.6680 O.2   133  GLY133     -0.2714
    121  N          9.8600   31.3650   18.7290 N.am  134  THR134     -0.1936
    122  CA        11.2080   31.9030   18.8050 C.3   134  THR134      0.2028
    123  C         12.1580   31.2170   17.8430 C.2   134  THR134      0.2642
    124  O         12.8460   31.8780   17.0700 O.2   134  THR134     -0.2714
    125  CB        11.7050   31.7930   20.2500 C.3   134  THR134      0.1808
    126  OG1       10.8270   32.5310   21.1080 O.3   134  THR134     -0.2208
    127  CG2       13.0540   32.4570   20.4220 C.3   134  THR134      0.0379
    128  N         12.2150   29.8940   17.8820 N.am  135  MET135     -0.1976
    129  CA        13.1000   29.1420   16.9940 C.3   135  MET135      0.1605
    130  C         12.6580   29.3100   15.5410 C.2   135  MET135      0.2287
    131  O         13.4760   29.3390   14.6260 O.2   135  MET135     -0.2864
    132  CB        13.1400   27.6460   17.3800 C.3   135  MET135      0.0413
    133  CG        14.3490   27.2390   18.2070 C.3   135  MET135      0.0598
    134  SD        14.1820   25.6190   18.9660 S.3   135  MET135     -0.1393
    135  CE        15.4740   25.6640   20.1110 C.3   135  MET135      0.0692
    136  N          8.2940   21.4290   25.7560 N.3   158  LEU158     -0.1245
    137  CA         6.9160   21.3780   26.2580 C.3   158  LEU158      0.1561
    138  C          6.0410   20.8350   25.1690 C.2   158  LEU158      0.2260
    139  O          5.6030   21.5760   24.2840 O.2   158  LEU158     -0.2867
    140  CB         6.4280   22.7720   26.7080 C.3   158  LEU158      0.0270
    141  CG         7.3880   23.5150   27.6460 C.3   158  LEU158      0.0019
    142  CD1        6.7730   24.7990   28.1720 C.3   158  LEU158      0.0001
    143  CD2        7.8270   22.6010   28.8230 C.3   158  LEU158      0.0001
    144  N          2.6020   22.0560   23.4950 N.3   161  LEU161     -0.1245
    145  CA         2.5890   23.2920   22.7080 C.3   161  LEU161      0.1561
    146  C          2.9840   23.1600   21.2190 C.2   161  LEU161      0.2260
    147  O          2.9640   24.1300   20.4890 O.2   161  LEU161     -0.2867
    148  CB         3.4150   24.3710   23.4250 C.3   161  LEU161      0.0270
    149  CG         2.9130   24.6660   24.8630 C.3   161  LEU161      0.0019
    150  CD1        3.7740   25.7020   25.5580 C.3   161  LEU161      0.0001
    151  CD2        1.4340   25.1450   24.8320 C.3   161  LEU161      0.0001
@<TRIPOS>BOND
     1   131   130    2
     2   130   129    1
     3    63    61    1
     4   120   119    2
     5   116   115    2
     6   129   132    1
     7   129   128    1
     8    67    66    2
     9   124   123    2
    10   132   133    1
    11   119   118    1
    12   119   121   am
    13   118   117    1
    14   115   117   am
    15   115   114    1
    16   123   128   am
    17   123   122    1
    18    61    62    1
    19    61    60    1
    20    56    57    1
    21    66    65    1
    22   133   134    1
    23    57    60    1
    24    57    58    1
    25   114   113    1
    26   109   108    2
    27    68    65    1
    28   121   122    1
    29   122   125    1
    30   134   135    1
    31    65    64    1
    32    58    59    2
    33   108   113   am
    34   108   107    1
    35    99    98    1
    36   100    98    1
    37   125   127    1
    38   125   126    1
    39   147   146    2
    40   111   110    1
    41   110   107    1
    42   110   112    1
    43   107   106    1
    44    98    97    1
    45   146   145    1
    46   104   103    2
    47    69    70    1
    48    97    94    1
    49   106   103   am
    50    37    38    1
    51   103   102    1
    52    73    70    1
    53    73    74    1
    54    41    38    1
    55    41    42    1
    56   145   148    1
    57   145   144    1
    58    76    74   ar
    59    70    71    1
    60    94    95    1
    61    94    93    1
    62    43    42   ar
    63    74    75   ar
    64    38    39    1
    65   101    95   am
    66   101   102    1
    67   148   149    1
    68    40    39    2
    69    95    96    2
    70    42    44   ar
    71   102   105    1
    72    72    71    2
    73    88    87    2
    74    93    87   am
    75    71    77   am
    76   139   138    2
    77    87    86    1
    78   151   149    1
    79   149   150    1
    80   138   137    1
    81    77    78    1
    82   136   137    1
    83    85    86    1
    84    85    79   am
    85    86    89    1
    86   137   140    1
    87    79    78    1
    88    79    80    2
    89    78    81    1
    90   140   141    1
    91    47    48    2
    92    47    46    1
    93    92    90    1
    94    84    82   ar
    95    45    46    1
    96    89    90    1
    97    90    91    1
    98   141   142    1
    99   141   143    1
   100    46    49    1
   101    81    82    1
   102    82    83   ar
   103    49    50    1
   104    50    51    1
   105    55    53    1
   106    52    53    2
   107    52    51    1
   108    53    54    1
   109     7     5    1
   110     6     5    1
   111     5     2    1
   112    31    30    1
   113    31    32    1
   114    30    27    1
   115    29    28    2
   116    23    21   ar
   117    23    25   ar
   118    11    10    2
   119     2     1    1
   120     2     3    1
   121    21    20   ar
   122    33    32    1
   123    33    34    2
   124    25    24   ar
   125    36    34    1
   126    26    27    1
   127    26    17   am
   128     8     3   am
   129     8     9    1
   130    27    28    1
   131     3     4    2
   132    10     9    1
   133    10    15   am
   134    34    35    1
   135    16    17    1
   136    16    15    1
   137    16    19    1
   138    20    19    1
   139    20    22   ar
   140    24    22   ar
   141    17    18    2
   142     9    12    1
   143    12    14    1
   144    12    13    1
