@<TRIPOS>MOLECULE
tmp/1orfA00.pdb
 165 160 0 0 0
SMALL
GASTEIGER

@<TRIPOS>ATOM
      1  N         24.9740   20.7930    1.8930 N.3    25  ILE25      -0.1231
      2  CA        25.0250   20.4100    3.3100 C.3    25  ILE25       0.1692
      3  C         23.8310   20.8860    4.1420 C.2    25  ILE25       0.2592
      4  O         23.0130   21.7130    3.6980 O.2    25  ILE25      -0.2718
      5  CB        26.3540   20.8340    4.0010 C.3    25  ILE25       0.0266
      6  CG1       26.5020   22.3570    4.0400 C.3    25  ILE25       0.0019
      7  CG2       27.5710   20.0860    3.3870 C.3    25  ILE25       0.0020
      8  CD1       27.6170   22.8140    4.9260 C.3    25  ILE25       0.0001
      9  N         23.7420   20.3350    5.3520 N.am   26  CYS26      -0.1970
     10  CA        22.7960   20.7830    6.3510 C.3    26  CYS26       0.1712
     11  C         23.4330   20.5980    7.7210 C.2    26  CYS26       0.2296
     12  O         24.5310   20.0640    7.8330 O.2    26  CYS26      -0.2864
     13  CB        21.4560   20.0270    6.2300 C.3    26  CYS26       0.0983
     14  SG        20.2580   20.9060    5.1760 S.3    26  CYS26      -0.0798
     15  N         13.2450   19.7530    4.8070 N.3    41  HIS41      -0.1226
     16  CA        13.6530   20.1280    3.4480 C.3    41  HIS41       0.1752
     17  C         15.0690   19.6550    3.0670 C.2    41  HIS41       0.2596
     18  O         15.4650   19.7450    1.9080 O.2    41  HIS41      -0.2718
     19  CB        13.4490   21.6240    3.1880 C.3    41  HIS41       0.0759
     20  CG        14.5600   22.4980    3.6900 C.ar   41  HIS41       0.0818
     21  ND1       14.4430   23.2730    4.8300 N.ar   41  HIS41      -0.2268
     22  CD2       15.7930   22.7510    3.1820 C.ar   41  HIS41       0.1154
     23  CE1       15.5570   23.9570    5.0080 C.ar   41  HIS41       0.1986
     24  NE2       16.3920   23.6660    4.0150 N.ar   41  HIS41      -0.2212
     25  N         15.8180   19.1430    4.0370 N.am   42  CYS42      -0.1970
     26  CA        17.1660   18.6640    3.7780 C.3    42  CYS42       0.1712
     27  C         17.1070   17.2340    3.2410 C.2    42  CYS42       0.2296
     28  O         16.8120   16.2990    3.9840 O.2    42  CYS42      -0.2864
     29  CB        17.9960   18.7430    5.0620 C.3    42  CYS42       0.0983
     30  SG        18.3120   20.4310    5.6240 S.3    42  CYS42      -0.0798
     31  N          6.0750   26.1660    4.5150 N.3    83  ARG83      -0.1245
     32  CA         7.3230   25.9620    5.2510 C.3    83  ARG83       0.1563
     33  C          7.0550   25.5040    6.6830 C.2    83  ARG83       0.2260
     34  O          7.9710   25.2810    7.4750 O.2    83  ARG83      -0.2867
     35  CB         8.2070   27.2200    5.1930 C.3    83  ARG83       0.0307
     36  CG         9.0080   27.3960    3.8660 C.3    83  ARG83       0.0489
     37  CD         9.5720   26.0730    3.2850 C.3    83  ARG83       0.2205
     38  NE         9.6070   26.0790    1.8150 N.pl3  83  ARG83      -0.0865
     39  CZ        10.0660   25.0730    1.0610 C.cat  83  ARG83       0.5346
     40  NH1       10.5190   23.9500    1.6210 N.pl3  83  ARG83       0.1354
     41  NH2       10.0690   25.1870   -0.2610 N.pl3  83  ARG83       0.1354
     42  N          8.3760   39.7310    5.5290 N.3   157  TYR157     -0.1241
     43  CA         7.8820   38.6240    4.6970 C.3   157  TYR157      0.1605
     44  C          6.5470   38.9180    3.9970 C.2   157  TYR157      0.2264
     45  O          6.2720   38.3510    2.9360 O.2   157  TYR157     -0.2867
     46  CB         7.8600   37.2970    5.4690 C.3   157  TYR157      0.0534
     47  CG         9.2420   36.7680    5.6340 C.ar  157  TYR157     -0.0201
     48  CD1        9.8970   36.1620    4.5730 C.ar  157  TYR157     -0.0009
     49  CD2        9.9280   36.9240    6.8420 C.ar  157  TYR157     -0.0009
     50  CE1       11.2000   35.7000    4.7100 C.ar  157  TYR157      0.0417
     51  CE2       11.2270   36.4580    7.0010 C.ar  157  TYR157      0.0417
     52  CZ        11.8600   35.8560    5.9280 C.ar  157  TYR157      0.1957
     53  OH        13.1470   35.4120    6.0630 O.3   157  TYR157     -0.2866
     54  N          4.2750   36.2600    2.4510 N.3   160  ASN160     -0.1226
     55  CA         4.9050   35.3960    1.4650 C.3   160  ASN160      0.1770
     56  C          6.2220   34.9210    2.0390 C.2   160  ASN160      0.2439
     57  O          7.2600   35.5360    1.7660 O.2   160  ASN160     -0.2733
     58  CB         5.1450   36.1520    0.1460 C.3   160  ASN160      0.1168
     59  CG         5.8270   35.2900   -0.9420 C.2   160  ASN160      0.2627
     60  OD1        5.6650   34.0520   -1.0110 O.2   160  ASN160     -0.2716
     61  ND2        6.5800   35.9590   -1.8120 N.am  160  ASN160     -0.0877
     62  N          6.2050   33.8770    2.8700 N.am  161  PRO161     -0.2729
     63  CA         4.9850   33.2900    3.4400 C.3   161  PRO161      0.1401
     64  C          4.5480   33.9390    4.7580 C.2   161  PRO161      0.2269
     65  O          5.2350   34.8400    5.2890 O.2   161  PRO161     -0.2865
     66  CB         5.4340   31.8750    3.7540 C.3   161  PRO161      0.0296
     67  CG         6.8300   32.0700    4.1690 C.3   161  PRO161      0.0237
     68  CD         7.4110   33.1410    3.2810 C.3   161  PRO161      0.0939
     69  N         22.8070   36.3510   10.5010 N.3   178  ASP178     -0.1225
     70  CA        21.7820   35.4260   10.0490 C.3   178  ASP178      0.1805
     71  C         22.3870   34.0580    9.8360 C.2   178  ASP178      0.2598
     72  O         23.6080   33.9110    9.7420 O.2   178  ASP178     -0.2718
     73  CB        21.1980   35.9670    8.7330 C.3   178  ASP178      0.1424
     74  CG        19.7990   35.4560    8.4300 C.2   178  ASP178      0.3668
     75  OD1       19.2060   34.7240    9.2620 O.co2 178  ASP178     -0.2456
     76  OD2       19.2250   35.7410    7.3500 O.co2 178  ASP178     -0.2456
     77  N         21.5330   33.0480    9.7720 N.am  179  SER179     -0.1938
     78  CA        21.9420   31.7980    9.1750 C.3   179  SER179      0.2055
     79  C         21.8410   31.9790    7.6510 C.2   179  SER179      0.2643
     80  O         21.4460   33.0510    7.1590 O.2   179  SER179     -0.2714
     81  CB        21.0550   30.6830    9.6760 C.3   179  SER179      0.2130
     82  OG        19.7080   31.0090    9.4290 O.3   179  SER179     -0.2179
     83  N         22.2050   30.9530    6.8900 N.am  180  CYS180     -0.1953
     84  CA        22.1960   31.0650    5.4340 C.3   180  CYS180      0.1843
     85  C         22.1290   29.6580    4.8340 C.2   180  CYS180      0.2625
     86  O         21.9190   28.6890    5.5860 O.2   180  CYS180     -0.2714
     87  CB        23.4510   31.8180    4.9640 C.3   180  CYS180      0.0997
     88  SG        23.2420   32.5250    3.3120 S.3   180  CYS180     -0.0797
     89  N         22.3300   29.5310    3.5160 N.am  181  ASN181     -0.1958
     90  CA        22.2640   28.2120    2.8680 C.3   181  ASN181      0.1819
     91  C         23.2150   27.2360    3.5420 C.2   181  ASN181      0.2621
     92  O         24.3870   27.5570    3.6980 O.2   181  ASN181     -0.2715
     93  CB        22.6500   28.2630    1.3750 C.3   181  ASN181      0.1195
     94  CG        21.9620   29.3810    0.5980 C.2   181  ASN181      0.2630
     95  OD1       21.2880   30.2590    1.1670 O.2   181  ASN181     -0.2716
     96  ND2       22.1290   29.3530   -0.7290 N.am  181  ASN181     -0.0877
     97  N         22.7280   26.0490    3.9010 N.am  182  GLY182     -0.1954
     98  CA        23.5610   25.0200    4.5170 C.3   182  GLY182      0.1869
     99  C         23.4480   24.9730    6.0390 C.2   182  GLY182      0.2309
    100  O         23.8840   23.9900    6.6520 O.2   182  GLY182     -0.2863
    101  N         20.4050   25.0630    7.5280 N.3   184  SER184     -0.1217
    102  CA        19.1430   24.3740    7.8260 C.3   184  SER184      0.1889
    103  C         19.3430   23.1820    8.7440 C.2   184  SER184      0.2288
    104  O         20.2900   22.4000    8.5480 O.2   184  SER184     -0.2866
    105  CB        18.4770   23.9080    6.5530 C.3   184  SER184      0.2089
    106  OG        18.2580   25.0380    5.7310 O.3   184  SER184     -0.2183
    107  N         16.5550   25.8490   12.4160 N.3   198  THR198     -0.1203
    108  CA        16.7700   26.6790   11.2380 C.3   198  THR198      0.1994
    109  C         16.0200   26.1700   10.0020 C.2   198  THR198      0.2619
    110  O         16.2150   25.0080    9.5540 O.2   198  THR198     -0.2717
    111  CB        18.2750   26.7640   10.9430 C.3   198  THR198      0.1784
    112  OG1       18.9640   27.2470   12.0960 O.3   198  THR198     -0.2211
    113  CG2       18.5740   27.8250    9.8750 C.3   198  THR198      0.0376
    114  N         15.1740   27.0390    9.4380 N.am  199  SER199     -0.1937
    115  CA        14.3740   26.6530    8.2800 C.3   199  SER199      0.2055
    116  C         14.6660   27.4470    6.9910 C.2   199  SER199      0.2643
    117  O         15.1470   26.8640    6.0070 O.2   199  SER199     -0.2714
    118  CB        12.8720   26.6750    8.6050 C.3   199  SER199      0.2130
    119  OG        12.1110   26.3300    7.4390 O.3   199  SER199     -0.2179
    120  N         14.3640   28.7570    6.9780 N.am  200  PHE200     -0.1959
    121  CA        14.4340   29.5160    5.7250 C.3   200  PHE200      0.1771
    122  C         14.6920   31.0250    5.8940 C.2   200  PHE200      0.2620
    123  O         14.6350   31.5760    7.0160 O.2   200  PHE200     -0.2715
    124  CB        13.1640   29.2640    4.8760 C.3   200  PHE200      0.0574
    125  CG        11.9060   29.9140    5.4220 C.ar  200  PHE200     -0.0200
    126  CD1       11.5920   31.2540    5.1160 C.ar  200  PHE200     -0.0042
    127  CD2       11.0450   29.2000    6.2590 C.ar  200  PHE200     -0.0042
    128  CE1       10.4300   31.8650    5.6200 C.ar  200  PHE200     -0.0003
    129  CE2        9.8710   29.7920    6.7660 C.ar  200  PHE200     -0.0003
    130  CZ         9.5590   31.1270    6.4400 C.ar  200  PHE200     -0.0000
    131  N         14.9800   31.6740    4.7700 N.am  201  GLY201     -0.1940
    132  CA        15.0960   33.1110    4.6900 C.3   201  GLY201      0.2014
    133  C         14.7690   33.5480    3.2680 C.2   201  GLY201      0.2639
    134  O         14.0270   32.8420    2.5420 O.2   201  GLY201     -0.2714
    135  N         15.3120   34.7000    2.8600 N.am  202  LEU202     -0.1963
    136  CA        15.1430   35.1460    1.4840 C.3   202  LEU202      0.1728
    137  C         16.3250   34.7020    0.6320 C.2   202  LEU202      0.2616
    138  O         17.4840   34.8430    1.0310 O.2   202  LEU202     -0.2715
    139  CB        14.9490   36.6570    1.4100 C.3   202  LEU202      0.0311
    140  CG        13.6770   37.2370    2.0350 C.3   202  LEU202      0.0022
    141  CD1       13.7740   38.7440    2.0140 C.3   202  LEU202      0.0001
    142  CD2       12.4200   36.7600    1.2960 C.3   202  LEU202      0.0001
    143  N         16.0100   34.1630   -0.5400 N.am  203  GLU203     -0.1977
    144  CA        16.9840   33.6150   -1.4740 C.3   203  GLU203      0.1602
    145  C         18.0630   34.6570   -1.8290 C.2   203  GLU203      0.2287
    146  O         17.7450   35.7800   -2.2780 O.2   203  GLU203     -0.2864
    147  CB        16.2420   33.1370   -2.7270 C.3   203  GLU203      0.0415
    148  CG        17.1440   32.7940   -3.8990 C.3   203  GLU203      0.1163
    149  CD        16.7150   31.5310   -4.6210 C.2   203  GLU203      0.3649
    150  OE1       15.7760   31.6240   -5.4620 O.co2 203  GLU203     -0.2457
    151  OE2       17.3040   30.4470   -4.3420 O.co2 203  GLU203     -0.2457
    152  N         20.5820   36.3520    2.6110 N.3   206  CYS206     -0.1235
    153  CA        20.9060   36.0970    3.9980 C.3   206  CYS206      0.1677
    154  C         21.4440   37.3700    4.6080 C.2   206  CYS206      0.2270
    155  O         22.3020   38.0150    4.0170 O.2   206  CYS206     -0.2867
    156  CB        21.9440   35.0100    4.0940 C.3   206  CYS206      0.0956
    157  SG        21.4400   33.4840    3.2700 S.3   206  CYS206     -0.0801
    158  N         14.4990   40.0420    5.5020 N.3   211  GLY211     -0.1225
    159  CA        14.3190   38.6080    5.6720 C.3   211  GLY211      0.1811
    160  C         15.1440   37.9860    6.7990 C.2   211  GLY211      0.2280
    161  O         16.0980   37.2090    6.5310 O.2   211  GLY211     -0.2866
    162  N         16.1020   35.3560    9.5410 N.3   213  GLY213     -0.1225
    163  CA        15.9730   33.9240    9.4020 C.3   213  GLY213      0.1811
    164  C         14.7530   33.4360   10.1670 C.2   213  GLY213      0.2280
    165  O         14.4140   33.9830   11.2460 O.2   213  GLY213     -0.2866
@<TRIPOS>BOND
     1   150   149   ar
     2   149   151   ar
     3   149   148    1
     4   148   147    1
     5   147   144    1
     6   146   145    2
     7   145   144    1
     8    61    59   am
     9   144   143    1
    10    60    59    2
    11    59    58    1
    12    96    94   am
    13   143   137   am
    14    41    39    1
    15    58    55    1
    16    94    95    2
    17    94    93    1
    18   137   138    2
    19   137   136    1
    20    39    40    1
    21    39    38    2
    22   142   140    1
    23    93    90    1
    24   139   136    1
    25   139   140    1
    26    55    56    1
    27    55    54    1
    28   136   135    1
    29    57    56    2
    30    38    37    1
    31     1     2    1
    32    18    17    2
    33   141   140    1
    34    56    62   am
    35   134   133    2
    36   152   153    1
    37   135   133   am
    38    90    89    1
    39    90    91    1
    40    62    68    1
    41    62    63    1
    42    45    44    2
    43    17    16    1
    44    17    25   am
    45    22    20   ar
    46    22    24   ar
    47    19    16    1
    48    19    20    1
    49    27    26    1
    50    27    28    2
    51   133   132    1
    52   157    88    1
    53   157   156    1
    54    68    67    1
    55    37    36    1
    56     2     5    1
    57     2     3    1
    58    88    87    1
    59     7     5    1
    60    63    66    1
    61    63    64    1
    62    16    15    1
    63    89    85   am
    64    91    92    2
    65    91    97   am
    66    20    21   ar
    67     4     3    2
    68    66    67    1
    69    26    25    1
    70    26    29    1
    71    36    35    1
    72    97    98    1
    73    44    43    1
    74   153   156    1
    75   153   154    1
    76     5     6    1
    77    24    23   ar
    78   155   154    2
    79     6     8    1
    80     3     9   am
    81    31    32    1
    82    98    99    1
    83    48    50   ar
    84    48    47   ar
    85   132   131    1
    86    43    46    1
    87    43    42    1
    88    50    52   ar
    89    64    65    2
    90   131   122   am
    91    21    23   ar
    92    85    84    1
    93    85    86    2
    94   124   125    1
    95   124   121    1
    96    87    84    1
    97    29    30    1
    98   126   125   ar
    99   126   128   ar
   100    14    30    1
   101    14    13    1
   102    35    32    1
   103    32    33    1
   104     9    10    1
   105   125   127   ar
   106    84    83    1
   107    46    47    1
   108   158   159    1
   109   128   130   ar
   110    47    49   ar
   111   159   160    1
   112   121   122    1
   113   121   120    1
   114   106   105    1
   115   122   123    2
   116    52    53    1
   117    52    51   ar
   118   117   116    2
   119    99   100    2
   120    13    10    1
   121   127   129   ar
   122    10    11    1
   123   130   129   ar
   124   161   160    2
   125   105   102    1
   126    33    34    2
   127    49    51   ar
   128    83    79   am
   129   120   116   am
   130   116   115    1
   131    80    79    2
   132    76    74   ar
   133   119   118    1
   134   101   102    1
   135    79    78    1
   136    11    12    2
   137   102   103    1
   138   115   118    1
   139   115   114    1
   140    74    73    1
   141    74    75   ar
   142   104   103    2
   143    73    70    1
   144    78    81    1
   145    78    77    1
   146   163   162    1
   147   163   164    1
   148    82    81    1
   149   114   109   am
   150   110   109    2
   151    72    71    2
   152    77    71   am
   153    71    70    1
   154   113   111    1
   155   109   108    1
   156    70    69    1
   157   164   165    2
   158   111   108    1
   159   111   112    1
   160   108   107    1
