@<TRIPOS>MOLECULE
tmp/1orkA00.pdb
 194 185 0 0 0
SMALL
GASTEIGER

@<TRIPOS>ATOM
      1  N         19.0390   28.2490   28.0840 N.3    59  LEU59      -0.1245
      2  CA        18.6750   28.3550   29.4970 C.3    59  LEU59       0.1561
      3  C         17.2650   27.8550   29.8040 C.2    59  LEU59       0.2260
      4  O         17.0800   27.0590   30.7180 O.2    59  LEU59      -0.2867
      5  CB        18.8550   29.7880   30.0090 C.3    59  LEU59       0.0270
      6  CG        20.3050   30.2850   30.0630 C.3    59  LEU59       0.0019
      7  CD1       20.3680   31.6580   30.6830 C.3    59  LEU59       0.0001
      8  CD2       21.1400   29.3260   30.8820 C.3    59  LEU59       0.0001
      9  N         18.3890   25.0410   32.1170 N.3    63  HIS63      -0.1241
     10  CA        18.6650   25.7270   33.3710 C.3    63  HIS63       0.1621
     11  C         17.4970   25.4940   34.3250 C.2    63  HIS63       0.2264
     12  O         16.7130   26.3940   34.5910 O.2    63  HIS63      -0.2867
     13  CB        18.8580   27.2120   33.0670 C.3    63  HIS63       0.0745
     14  CG        19.2020   28.0540   34.2520 C.ar   63  HIS63       0.0817
     15  ND1       20.0190   27.6170   35.2720 N.ar   63  HIS63      -0.2268
     16  CD2       18.8670   29.3280   34.5550 C.ar   63  HIS63       0.1154
     17  CE1       20.1770   28.5900   36.1520 C.ar   63  HIS63       0.1986
     18  NE2       19.4860   29.6380   35.7380 N.ar   63  HIS63      -0.2212
     19  N         16.3240   27.7820   38.3270 N.3    66  SER66      -0.1217
     20  CA        16.2480   29.2270   38.1160 C.3    66  SER66       0.1889
     21  C         15.5950   29.9970   39.2630 C.2    66  SER66       0.2288
     22  O         15.9990   31.1210   39.5610 O.2    66  SER66      -0.2866
     23  CB        15.5300   29.5270   36.7940 C.3    66  SER66       0.2089
     24  OG        14.5000   28.5800   36.5430 O.3    66  SER66      -0.2183
     25  N         20.6970   28.6510   47.3190 N.3    77  PHE77      -0.1227
     26  CA        20.1740   29.0820   46.0310 C.3    77  PHE77       0.1736
     27  C         21.3530   29.4600   45.1410 C.2    77  PHE77       0.2595
     28  O         21.5210   28.8800   44.0780 O.2    77  PHE77      -0.2718
     29  CB        19.2300   30.2780   46.1760 C.3    77  PHE77       0.0547
     30  CG        18.8400   30.9040   44.8550 C.ar   77  PHE77      -0.0202
     31  CD1       18.0990   30.1860   43.9220 C.ar   77  PHE77      -0.0042
     32  CD2       19.2330   32.2040   44.5420 C.ar   77  PHE77      -0.0042
     33  CE1       17.7600   30.7540   42.7040 C.ar   77  PHE77      -0.0003
     34  CE2       18.8970   32.7790   43.3220 C.ar   77  PHE77      -0.0003
     35  CZ        18.1610   32.0560   42.4050 C.ar   77  PHE77      -0.0000
     36  N         22.1930   30.3860   45.6000 N.am   78  LEU78      -0.1980
     37  CA        23.3480   30.8120   44.8180 C.3    78  LEU78       0.1596
     38  C         24.1740   29.6220   44.3390 C.2    78  LEU78       0.2287
     39  O         24.6110   29.5970   43.1900 O.2    78  LEU78      -0.2864
     40  CB        24.2050   31.8050   45.6040 C.3    78  LEU78       0.0297
     41  CG        24.2010   33.2460   45.0760 C.3    78  LEU78       0.0022
     42  CD1       22.8000   33.6870   44.6820 C.3    78  LEU78       0.0001
     43  CD2       24.7960   34.1820   46.1080 C.3    78  LEU78       0.0001
     44  N         21.7170   27.4380   41.8250 N.3    81  ASN81      -0.1240
     45  CA        21.4740   28.2310   40.6280 C.3    81  ASN81       0.1653
     46  C         22.7460   28.3310   39.7720 C.2    81  ASN81       0.2266
     47  O         22.6790   28.2930   38.5360 O.2    81  ASN81      -0.2867
     48  CB        20.9840   29.6240   41.0240 C.3    81  ASN81       0.1155
     49  CG        20.7920   30.5380   39.8360 C.2    81  ASN81       0.2627
     50  OD1       21.6260   31.4030   39.5740 O.2    81  ASN81      -0.2716
     51  ND2       19.6880   30.3650   39.1160 N.am   81  ASN81      -0.0877
     52  N         23.3090   26.7390   36.0620 N.3    85  PHE85      -0.1241
     53  CA        23.8000   27.6560   35.0520 C.3    85  PHE85       0.1605
     54  C         24.9840   27.0290   34.3140 C.2    85  PHE85       0.2264
     55  O         24.9670   26.9140   33.0920 O.2    85  PHE85      -0.2867
     56  CB        24.2160   28.9620   35.7260 C.3    85  PHE85       0.0534
     57  CG        24.5740   30.0490   34.7720 C.ar   85  PHE85      -0.0203
     58  CD1       23.8260   30.2530   33.6190 C.ar   85  PHE85      -0.0042
     59  CD2       25.6450   30.8860   35.0380 C.ar   85  PHE85      -0.0042
     60  CE1       24.1400   31.2810   32.7440 C.ar   85  PHE85      -0.0003
     61  CE2       25.9710   31.9120   34.1790 C.ar   85  PHE85      -0.0003
     62  CZ        25.2190   32.1160   33.0250 C.ar   85  PHE85      -0.0000
     63  N         25.9190   32.7490   25.1230 N.3    99  HIS99      -0.1241
     64  CA        25.3540   33.5450   26.2090 C.3    99  HIS99       0.1621
     65  C         26.0500   34.8870   26.3800 C.2    99  HIS99       0.2264
     66  O         25.4210   35.8710   26.7650 O.2    99  HIS99      -0.2867
     67  CB        25.4410   32.7720   27.5260 C.3    99  HIS99       0.0745
     68  CG        24.8080   33.4820   28.6780 C.ar   99  HIS99       0.0817
     69  ND1       23.5400   33.2180   29.1380 N.ar   99  HIS99      -0.2268
     70  CD2       25.2620   34.5180   29.4250 C.ar   99  HIS99       0.1154
     71  CE1       23.2680   34.0810   30.1100 C.ar   99  HIS99       0.1986
     72  NE2       24.2850   34.8940   30.3210 N.ar   99  HIS99      -0.2212
     73  N         27.4500   38.4510   26.4170 N.3   101  GLY101     -0.1210
     74  CA        26.9190   39.6970   25.8970 C.3   101  GLY101      0.1956
     75  C         25.4190   39.8860   26.0060 C.2   101  GLY101      0.2613
     76  O         24.9460   41.0180   25.9120 O.2   101  GLY101     -0.2717
     77  N         24.6690   38.8110   26.2310 N.am  102  THR102     -0.1938
     78  CA        23.2220   38.9180   26.3400 C.3   102  THR102      0.2028
     79  C         22.7610   39.4940   27.6790 C.2   102  THR102      0.2642
     80  O         23.4930   39.4550   28.6690 O.2   102  THR102     -0.2714
     81  CB        22.5420   37.5430   26.1190 C.3   102  THR102      0.1808
     82  OG1       23.0360   36.6020   27.0790 O.3   102  THR102     -0.2208
     83  CG2       22.8210   37.0220   24.7140 C.3   102  THR102      0.0379
     84  N         21.5550   40.0550   27.6890 N.am  103  ARG103     -0.1963
     85  CA        20.9420   40.6090   28.8960 C.3   103  ARG103      0.1714
     86  C         19.6170   39.8870   29.0530 C.2   103  ARG103      0.2458
     87  O         19.1670   39.2140   28.1280 O.2   103  ARG103     -0.2730
     88  CB        20.6920   42.1160   28.7700 C.3   103  ARG103      0.0347
     89  CG        21.6820   42.9800   29.5630 C.3   103  ARG103      0.0492
     90  CD        21.1220   44.3790   29.8600 C.3   103  ARG103      0.2205
     91  NE        22.1780   45.3710   30.0780 N.pl3 103  ARG103     -0.0865
     92  CZ        21.9890   46.6900   30.0690 C.cat 103  ARG103      0.5346
     93  NH1       20.7740   47.1950   29.8780 N.pl3 103  ARG103      0.1354
     94  NH2       23.0170   47.5080   30.2670 N.pl3 103  ARG103      0.1354
     95  N         18.9890   39.9900   30.2310 N.am  104  PRO104     -0.2727
     96  CA        17.7140   39.3080   30.4170 C.3   104  PRO104      0.1402
     97  C         16.7330   39.6160   29.3090 C.2   104  PRO104      0.2269
     98  O         16.5560   40.7680   28.9100 O.2   104  PRO104     -0.2865
     99  CB        17.2360   39.8540   31.7540 C.3   104  PRO104      0.0296
    100  CG        18.5110   39.9950   32.4990 C.3   104  PRO104      0.0237
    101  CD        19.4070   40.6520   31.4770 C.3   104  PRO104      0.0939
    102  N         12.5450   36.1350   30.4750 N.3   108  GLN108     -0.1245
    103  CA        13.3260   35.9640   31.6830 C.3   108  GLN108      0.1566
    104  C         13.0740   37.0380   32.7310 C.2   108  GLN108      0.2260
    105  O         13.3440   36.8120   33.9120 O.2   108  GLN108     -0.2867
    106  CB        14.8100   35.8790   31.3190 C.3   108  GLN108      0.0367
    107  CG        15.1100   34.6730   30.4250 C.3   108  GLN108      0.0905
    108  CD        16.5180   34.6550   29.8810 C.2   108  GLN108      0.2608
    109  OE1       17.1390   35.7010   29.7050 O.2   108  GLN108     -0.2717
    110  NE2       17.0090   33.4640   29.5560 N.am  108  GLN108     -0.0878
    111  N         11.7860   35.7730   35.9460 N.3   111  THR111     -0.1203
    112  CA        12.7910   35.0140   36.6760 C.3   111  THR111      0.1994
    113  C         13.8730   35.8900   37.3160 C.2   111  THR111      0.2617
    114  O         14.1390   35.7650   38.5070 O.2   111  THR111     -0.2717
    115  CB        13.4210   33.9250   35.7760 C.3   111  THR111      0.1784
    116  OG1       12.3900   33.0470   35.3090 O.3   111  THR111     -0.2211
    117  CG2       14.4370   33.1040   36.5500 C.3   111  THR111      0.0376
    118  N         14.4550   36.8080   36.5580 N.am  112  VAL112     -0.1979
    119  CA        15.4930   37.6630   37.1170 C.3   112  VAL112      0.1595
    120  C         14.9480   38.5870   38.2040 C.2   112  VAL112      0.2287
    121  O         15.6070   38.8110   39.2260 O.2   112  VAL112     -0.2864
    122  CB        16.2120   38.4780   36.0360 C.3   112  VAL112      0.0276
    123  CG1       17.2210   39.4240   36.6690 C.3   112  VAL112      0.0022
    124  CG2       16.9180   37.5380   35.0800 C.3   112  VAL112      0.0022
    125  N         14.7300   36.6950   41.4160 N.3   115  GLN115     -0.1231
    126  CA        16.0490   36.4580   42.0090 C.3   115  GLN115      0.1698
    127  C         16.4950   37.6810   42.8080 C.2   115  GLN115      0.2592
    128  O         16.9400   37.5550   43.9440 O.2   115  GLN115     -0.2718
    129  CB        17.0870   36.1310   40.9300 C.3   115  GLN115      0.0381
    130  CG        16.8020   34.8380   40.1670 C.3   115  GLN115      0.0905
    131  CD        17.8860   34.4760   39.1620 C.2   115  GLN115      0.2608
    132  OE1       18.8460   35.2240   38.9630 O.2   115  GLN115     -0.2717
    133  NE2       17.7490   33.3070   38.5390 N.am  115  GLN115     -0.0878
    134  N         16.3370   38.8650   42.2270 N.am  116  LEU116     -0.1980
    135  CA        16.7070   40.1090   42.8960 C.3   116  LEU116      0.1596
    136  C         15.9090   40.3360   44.1950 C.2   116  LEU116      0.2287
    137  O         16.4890   40.6510   45.2330 O.2   116  LEU116     -0.2864
    138  CB        16.5200   41.2880   41.9340 C.3   116  LEU116      0.0297
    139  CG        17.4090   41.2420   40.6830 C.3   116  LEU116      0.0022
    140  CD1       16.9570   42.2740   39.6620 C.3   116  LEU116      0.0001
    141  CD2       18.8730   41.4560   41.0670 C.3   116  LEU116      0.0001
    142  N         22.5620   42.3350   43.8590 N.3   130  LEU130     -0.1245
    143  CA        22.8920   42.3870   42.4410 C.3   130  LEU130      0.1561
    144  C         24.3270   41.8590   42.3110 C.2   130  LEU130      0.2260
    145  O         24.5710   40.8800   41.6100 O.2   130  LEU130     -0.2867
    146  CB        22.8460   43.8390   41.9450 C.3   130  LEU130      0.0270
    147  CG        22.5820   44.2230   40.4800 C.3   130  LEU130      0.0019
    148  CD1       23.3150   45.5250   40.1850 C.3   130  LEU130      0.0001
    149  CD2       23.0160   43.1310   39.5030 C.3   130  LEU130      0.0001
    150  N         24.7490   38.1820   42.7350 N.3   133  ILE133     -0.1231
    151  CA        24.2030   37.5320   41.5420 C.3   133  ILE133      0.1692
    152  C         25.1810   37.6410   40.3720 C.2   133  ILE133      0.2592
    153  O         25.4500   36.6570   39.6810 O.2   133  ILE133     -0.2718
    154  CB        22.8370   38.1530   41.1760 C.3   133  ILE133      0.0266
    155  CG1       21.7620   37.5820   42.0970 C.3   133  ILE133      0.0019
    156  CG2       22.4880   37.9250   39.6990 C.3   133  ILE133      0.0020
    157  CD1       20.3970   38.1800   41.8650 C.3   133  ILE133      0.0001
    158  N         25.7210   38.8350   40.1830 N.am  134  SER134     -0.1952
    159  CA        26.6900   39.1090   39.1400 C.3   134  SER134      0.1924
    160  C         27.9680   38.2840   39.3120 C.2   134  SER134      0.2314
    161  O         28.3800   37.5800   38.3840 O.2   134  SER134     -0.2863
    162  CB        27.0500   40.5930   39.1370 C.3   134  SER134      0.2116
    163  OG        25.9150   41.3790   38.8380 O.3   134  SER134     -0.2180
    164  N         28.5490   35.5880   40.8290 N.3   136  VAL136     -0.1231
    165  CA        28.3080   34.1880   40.5640 C.3   136  VAL136      0.1692
    166  C         28.2710   33.9840   39.0480 C.2   136  VAL136      0.2593
    167  O         28.9660   33.1230   38.5130 O.2   136  VAL136     -0.2718
    168  CB        27.0030   33.7230   41.2540 C.3   136  VAL136      0.0266
    169  CG1       26.5730   32.3610   40.7370 C.3   136  VAL136      0.0020
    170  CG2       27.2390   33.6430   42.7550 C.3   136  VAL136      0.0020
    171  N         27.5090   34.8220   38.3560 N.am  137  SER137     -0.1938
    172  CA        27.3920   34.7370   36.9110 C.3   137  SER137      0.2055
    173  C         28.7460   34.8500   36.2010 C.2   137  SER137      0.2643
    174  O         29.1040   33.9940   35.3820 O.2   137  SER137     -0.2714
    175  CB        26.4280   35.8150   36.4100 C.3   137  SER137      0.2130
    176  OG        25.0950   35.5030   36.7850 O.3   137  SER137     -0.2179
    177  N         29.5290   35.8600   36.5710 N.am  138  HIS138     -0.1973
    178  CA        30.8340   36.0930   35.9580 C.3   138  HIS138      0.1656
    179  C         31.8180   34.9870   36.2360 C.2   138  HIS138      0.2291
    180  O         32.6190   34.6280   35.3710 O.2   138  HIS138     -0.2864
    181  CB        31.4030   37.4300   36.4050 C.3   138  HIS138      0.0771
    182  CG        30.5780   38.5980   35.9700 C.ar  138  HIS138      0.0820
    183  ND1       30.8170   39.8860   36.4060 N.ar  138  HIS138     -0.2267
    184  CD2       29.4820   38.6650   35.1750 C.ar  138  HIS138      0.1154
    185  CE1       29.9010   40.6940   35.9010 C.ar  138  HIS138      0.1986
    186  NE2       29.0800   39.9780   35.1550 N.ar  138  HIS138     -0.2212
    187  N         30.6020   31.8320   34.1350 N.3   141  LEU141     -0.1245
    188  CA        30.9140   32.0580   32.7170 C.3   141  LEU141      0.1561
    189  C         32.4000   31.8210   32.4110 C.2   141  LEU141      0.2260
    190  O         32.7410   30.9980   31.5630 O.2   141  LEU141     -0.2867
    191  CB        30.5610   33.4930   32.2940 C.3   141  LEU141      0.0270
    192  CG        29.2390   33.8610   31.6110 C.3   141  LEU141      0.0019
    193  CD1       28.7470   32.6910   30.7680 C.3   141  LEU141      0.0001
    194  CD2       28.1950   34.2700   32.6260 C.3   141  LEU141      0.0001
@<TRIPOS>BOND
     1    83    81    1
     2    63    64    1
     3    74    75    1
     4    74    73    1
     5    76    75    2
     6    75    77   am
     7    81    78    1
     8    81    82    1
     9    64    65    1
    10    64    67    1
    11    77    78    1
    12    78    79    1
    13    65    66    2
    14    67    68    1
    15    79    84   am
    16    79    80    2
    17    84    85    1
    18     1     2    1
    19    87    86    2
    20    68    69   ar
    21    68    70   ar
    22    88    85    1
    23    88    89    1
    24    85    86    1
    25    98    97    2
    26    86    95   am
    27    69    71   ar
    28    97    96    1
    29    70    72   ar
    30     2     3    1
    31     2     5    1
    32   110   108   am
    33    89    90    1
    34   109   108    2
    35     3     4    2
    36    90    91    1
    37    93    92    1
    38   108   107    1
    39     5     6    1
    40     6     7    1
    41     6     8    1
    42    92    91    2
    43    92    94    1
    44    71    72   ar
    45    95    96    1
    46    95   101    1
    47    96    99    1
    48   107   106    1
    49   102   103    1
    50   193   192    1
    51   106   103    1
    52   101   100    1
    53   190   189    2
    54   192   191    1
    55   192   194    1
    56   103   104    1
    57    99   100    1
    58     9    10    1
    59   191   188    1
    60   189   188    1
    61   188   187    1
    62   104   105    2
    63    60    62   ar
    64    60    58   ar
    65    62    61   ar
    66    13    10    1
    67    13    14    1
    68    55    54    2
    69    10    11    1
    70    58    57   ar
    71    61    59   ar
    72    14    16   ar
    73    14    15   ar
    74    54    53    1
    75    11    12    2
    76    16    18   ar
    77    57    59   ar
    78    57    56    1
    79    53    56    1
    80    53    52    1
    81   124   122    1
    82   186   184   ar
    83   186   185   ar
    84   184   182   ar
    85    15    17   ar
    86   116   115    1
    87   180   179    2
    88   174   173    2
    89    18    17   ar
    90   115   117    1
    91   115   112    1
    92   185   183   ar
    93   111   112    1
    94   178   179    1
    95   178   181    1
    96   178   177    1
    97   182   181    1
    98   182   183   ar
    99   122   123    1
   100   122   119    1
   101   173   177   am
   102   173   172    1
   103   175   176    1
   104   175   172    1
   105    24    23    1
   106   118   119    1
   107   118   113   am
   108   112   113    1
   109    23    20    1
   110   172   171    1
   111   119   120    1
   112   113   114    2
   113    20    19    1
   114    20    21    1
   115   120   121    2
   116   171   166   am
   117   161   160    2
   118   167   166    2
   119    47    46    2
   120   133   131   am
   121   163   162    1
   122   132   131    2
   123   166   165    1
   124    51    49   am
   125   162   159    1
   126   159   160    1
   127   159   158    1
   128   131   130    1
   129    21    22    2
   130   149   147    1
   131    50    49    2
   132   140   139    1
   133   153   152    2
   134   156   154    1
   135    46    45    1
   136    49    48    1
   137   130   129    1
   138   158   152   am
   139   148   147    1
   140   152   151    1
   141   147   146    1
   142   165   164    1
   143   165   168    1
   144    45    48    1
   145    45    44    1
   146   139   141    1
   147   139   138    1
   148   169   168    1
   149   129   126    1
   150   154   151    1
   151   154   155    1
   152   168   170    1
   153   125   126    1
   154   151   150    1
   155   145   144    2
   156   157   155    1
   157   138   135    1
   158   146   143    1
   159   126   127    1
   160   134   127   am
   161   134   135    1
   162   144   143    1
   163    35    33   ar
   164    35    34   ar
   165   143   142    1
   166    33    31   ar
   167   127   128    2
   168   135   136    1
   169    39    38    2
   170    34    32   ar
   171    31    30   ar
   172    28    27    2
   173   136   137    2
   174    38    37    1
   175    32    30   ar
   176    42    41    1
   177    37    36    1
   178    37    40    1
   179    30    29    1
   180    41    40    1
   181    41    43    1
   182    27    36   am
   183    27    26    1
   184    26    29    1
   185    26    25    1
