@<TRIPOS>MOLECULE
tmp/1orrB01.pdb
 193 188 0 0 0
SMALL
GASTEIGER

@<TRIPOS>ATOM
      1  N         23.6370   20.2440   33.5220 N.3    85  MET85      -0.1245
      2  CA        24.3130   20.2510   32.2520 C.3    85  MET85       0.1570
      3  C         25.5210   19.3710   32.3450 C.2    85  MET85       0.2261
      4  O         25.8040   18.6320   31.4370 O.2    85  MET85      -0.2867
      5  CB        24.7160   21.6510   31.7690 C.3    85  MET85       0.0387
      6  CG        25.3770   21.5800   30.4040 C.3    85  MET85       0.0595
      7  SD        26.3380   23.0730   30.0450 S.3    85  MET85      -0.1393
      8  CE        24.9890   24.1290   29.4220 C.3    85  MET85       0.0692
      9  N         14.1020   25.3580   28.9960 N.3   124  THR124     -0.1203
     10  CA        15.2770   26.1150   29.4380 C.3   124  THR124      0.1994
     11  C         15.8160   27.1410   28.4310 C.2   124  THR124      0.2618
     12  O         15.5900   27.0650   27.2200 O.2   124  THR124     -0.2717
     13  CB        16.3900   25.0390   29.6230 C.3   124  THR124      0.1784
     14  OG1       17.6390   25.6590   29.9130 O.3   124  THR124     -0.2211
     15  CG2       16.6110   24.2260   28.3400 C.3   124  THR124      0.0376
     16  N         16.5700   28.1060   28.9620 N.am  125  ASN125     -0.1960
     17  CA        17.1670   29.1620   28.1390 C.3   125  ASN125      0.1819
     18  C         18.2440   28.5560   27.2670 C.2   125  ASN125      0.2621
     19  O         18.7070   29.1690   26.3080 O.2   125  ASN125     -0.2715
     20  CB        17.8200   30.2210   29.0550 C.3   125  ASN125      0.1195
     21  CG        18.7840   29.6320   30.0880 C.2   125  ASN125      0.2630
     22  OD1       18.7950   28.4330   30.3350 O.2   125  ASN125     -0.2716
     23  ND2       19.6090   30.4460   30.7230 N.am  125  ASN125     -0.0877
     24  N         18.6560   27.3190   27.5940 N.am  126  LYS126     -0.1977
     25  CA        19.7040   26.6460   26.8220 C.3   126  LYS126      0.1596
     26  C         19.3030   26.2650   25.3920 C.2   126  LYS126      0.2287
     27  O         20.1490   25.8560   24.5800 O.2   126  LYS126     -0.2864
     28  CB        20.3630   25.5200   27.6180 C.3   126  LYS126      0.0298
     29  CG        20.8170   26.0280   28.9930 C.3   126  LYS126      0.0038
     30  CD        22.0960   26.8440   28.8650 C.3   126  LYS126      0.0206
     31  CE        22.8110   27.0710   30.1910 C.3   126  LYS126      0.1093
     32  NZ        22.1380   28.0510   31.0600 N.3   126  LYS126     -0.1314
     33  N         22.0020   18.5060   27.5140 N.3   164  TYR164     -0.1241
     34  CA        20.8680   19.0040   28.2790 C.3   164  TYR164      0.1605
     35  C         20.0270   19.9180   27.3720 C.2   164  TYR164      0.2264
     36  O         18.7860   19.8510   27.3000 O.2   164  TYR164     -0.2867
     37  CB        21.3900   19.7300   29.5530 C.3   164  TYR164      0.0534
     38  CG        20.3330   20.5470   30.2630 C.ar  164  TYR164     -0.0201
     39  CD1       19.4040   19.9410   31.1070 C.ar  164  TYR164     -0.0009
     40  CD2       20.2480   21.9290   30.0980 C.ar  164  TYR164     -0.0009
     41  CE1       18.4200   20.6640   31.7850 C.ar  164  TYR164      0.0417
     42  CE2       19.2790   22.6870   30.7620 C.ar  164  TYR164      0.0417
     43  CZ        18.3660   22.0480   31.6040 C.ar  164  TYR164      0.1957
     44  OH        17.4090   22.7890   32.2520 O.3   164  TYR164     -0.2866
     45  N         12.7280   28.6490   30.7500 N.3   191  HIS191     -0.1226
     46  CA        13.1900   29.2940   31.9620 C.3   191  HIS191      0.1752
     47  C         14.6560   29.6260   32.1210 C.2   191  HIS191      0.2597
     48  O         15.5500   28.8200   31.8010 O.2   191  HIS191     -0.2718
     49  CB        12.9240   28.3480   33.1500 C.3   191  HIS191      0.0759
     50  CG        11.5100   28.0980   33.5690 C.ar  191  HIS191      0.0818
     51  ND1       10.7960   29.0460   34.2910 N.ar  191  HIS191     -0.2268
     52  CD2       10.7260   26.9950   33.4200 C.ar  191  HIS191      0.1154
     53  CE1        9.6000   28.5100   34.5430 C.ar  191  HIS191      0.1986
     54  NE2        9.5270   27.2770   34.0410 N.ar  191  HIS191     -0.2212
     55  N         14.8610   30.8130   32.7220 N.am  192  SER192     -0.1938
     56  CA        16.1760   31.3120   33.0890 C.3   192  SER192      0.2055
     57  C         16.2810   30.8810   34.5570 C.2   192  SER192      0.2643
     58  O         15.3620   30.2390   35.0630 O.2   192  SER192     -0.2714
     59  CB        16.2730   32.8300   32.9470 C.3   192  SER192      0.2130
     60  OG        17.6160   33.1500   33.2740 O.3   192  SER192     -0.2179
     61  N         17.3570   31.2100   35.2640 N.am  193  SER193     -0.1949
     62  CA        17.5810   30.7800   36.6380 C.3   193  SER193      0.1924
     63  C         16.4790   31.0060   37.6370 C.2   193  SER193      0.2314
     64  O         15.9450   32.1100   37.7220 O.2   193  SER193     -0.2863
     65  CB        18.8360   31.4650   37.1960 C.3   193  SER193      0.2116
     66  OG        19.9100   31.3770   36.3050 O.3   193  SER193     -0.2180
     67  N         26.6740   21.5310   43.7030 N.3   203  TYR203     -0.1227
     68  CA        27.7140   22.1500   42.9000 C.3   203  TYR203      0.1736
     69  C         27.2630   22.3500   41.4440 C.2   203  TYR203      0.2595
     70  O         27.5230   23.4080   40.8300 O.2   203  TYR203     -0.2718
     71  CB        29.0400   21.3240   42.9760 C.3   203  TYR203      0.0548
     72  CG        30.0260   21.7810   41.9280 C.ar  203  TYR203     -0.0200
     73  CD1       30.7230   22.9870   42.0610 C.ar  203  TYR203     -0.0009
     74  CD2       30.2330   21.0250   40.7750 C.ar  203  TYR203     -0.0009
     75  CE1       31.6080   23.4370   41.0770 C.ar  203  TYR203      0.0417
     76  CE2       31.1110   21.4630   39.7790 C.ar  203  TYR203      0.0417
     77  CZ        31.8010   22.6690   39.9280 C.ar  203  TYR203      0.1957
     78  OH        32.6630   23.1090   38.9530 O.3   203  TYR203     -0.2866
     79  N         26.5690   21.3160   40.9300 N.am  204  ASP204     -0.1974
     80  CA        26.0400   21.1590   39.5680 C.3   204  ASP204      0.1709
     81  C         24.6650   21.7500   39.2210 C.2   204  ASP204      0.2293
     82  O         24.3250   21.7800   38.0240 O.2   204  ASP204     -0.2864
     83  CB        25.7980   19.6350   39.2850 C.3   204  ASP204      0.1436
     84  CG        26.8970   18.6370   39.4980 C.2   204  ASP204      0.3671
     85  OD1       27.7840   18.4450   38.6760 O.co2 204  ASP204     -0.2456
     86  OD2       26.7470   17.9560   40.6230 O.co2 204  ASP204     -0.2456
     87  N         22.6810   27.4280   41.0100 N.3   207  TRP207     -0.1241
     88  CA        23.8380   28.2450   41.2710 C.3   207  TRP207      0.1605
     89  C         23.6260   29.2460   42.3810 C.2   207  TRP207      0.2264
     90  O         24.4890   29.4110   43.2350 O.2   207  TRP207     -0.2867
     91  CB        24.3530   28.8410   39.9710 C.3   207  TRP207      0.0550
     92  CG        23.5530   29.9590   39.3770 C.ar  207  TRP207      0.0003
     93  CD1       22.5570   29.8670   38.4150 C.ar  207  TRP207      0.0946
     94  CD2       23.7340   31.3660   39.6250 C.ar  207  TRP207      0.0152
     95  NE1       22.0870   31.1350   38.1110 N.ar  207  TRP207     -0.2442
     96  CE2       22.8150   32.0740   38.8060 C.ar  207  TRP207      0.0810
     97  CE3       24.5830   32.0970   40.4410 C.ar  207  TRP207      0.0012
     98  CZ2       22.7460   33.4800   38.8170 C.ar  207  TRP207      0.0191
     99  CZ3       24.4960   33.4820   40.4530 C.ar  207  TRP207      0.0001
    100  CH2       23.5880   34.1710   39.6510 C.ar  207  TRP207      0.0015
    101  N         23.5530   27.4130   45.5980 N.3   210  TRP210     -0.1227
    102  CA        24.8560   26.8830   45.8700 C.3   210  TRP210      0.1737
    103  C         25.7740   27.9170   46.5310 C.2   210  TRP210      0.2595
    104  O         26.4070   27.6830   47.5840 O.2   210  TRP210     -0.2718
    105  CB        25.4450   26.2800   44.5810 C.3   210  TRP210      0.0564
    106  CG        26.8900   25.9040   44.7590 C.ar  210  TRP210      0.0003
    107  CD1       27.9730   26.5220   44.2040 C.ar  210  TRP210      0.0946
    108  CD2       27.4130   24.8180   45.5180 C.ar  210  TRP210      0.0152
    109  NE1       29.1400   25.8940   44.5480 N.ar  210  TRP210     -0.2442
    110  CE2       28.8140   24.8310   45.3510 C.ar  210  TRP210      0.0810
    111  CE3       26.8160   23.8250   46.2770 C.ar  210  TRP210      0.0012
    112  CZ2       29.6360   23.8890   45.9730 C.ar  210  TRP210      0.0191
    113  CZ3       27.6170   22.8940   46.8820 C.ar  210  TRP210      0.0001
    114  CH2       29.0080   22.9370   46.7370 C.ar  210  TRP210      0.0015
    115  N         25.8340   29.0960   45.9120 N.am  211  PHE211     -0.1976
    116  CA        26.6660   30.1560   46.4630 C.3   211  PHE211      0.1639
    117  C         26.1100   30.6740   47.7970 C.2   211  PHE211      0.2290
    118  O         26.8450   31.1460   48.6540 O.2   211  PHE211     -0.2864
    119  CB        27.0070   31.2440   45.4300 C.3   211  PHE211      0.0560
    120  CG        27.8210   30.6460   44.2790 C.ar  211  PHE211     -0.0200
    121  CD1       27.3110   30.5800   42.9800 C.ar  211  PHE211     -0.0042
    122  CD2       29.0970   30.1210   44.5010 C.ar  211  PHE211     -0.0042
    123  CE1       28.0540   30.0260   41.9330 C.ar  211  PHE211     -0.0003
    124  CE2       29.8610   29.5620   43.4740 C.ar  211  PHE211     -0.0003
    125  CZ        29.3300   29.5150   42.1870 C.ar  211  PHE211     -0.0000
    126  N         35.1230   27.3220   44.0600 N.3   227  THR227     -0.1203
    127  CA        35.4940   27.8680   42.7830 C.3   227  THR227      0.1994
    128  C         34.2960   28.3640   42.0370 C.2   227  THR227      0.2618
    129  O         33.1330   28.0910   42.3590 O.2   227  THR227     -0.2717
    130  CB        35.9470   26.7080   41.8620 C.3   227  THR227      0.1784
    131  OG1       34.8060   25.9330   41.4820 O.3   227  THR227     -0.2211
    132  CG2       37.0390   25.8450   42.4790 C.3   227  THR227      0.0376
    133  N         34.6530   29.0820   40.9860 N.am  228  ILE228     -0.1965
    134  CA        33.7290   29.6010   40.0380 C.3   228  ILE228      0.1727
    135  C         34.3220   29.2430   38.6810 C.2   228  ILE228      0.2616
    136  O         35.5490   29.1300   38.5370 O.2   228  ILE228     -0.2715
    137  CB        33.4000   31.0840   40.1510 C.3   228  ILE228      0.0290
    138  CG1       34.6130   31.9480   39.8440 C.3   228  ILE228      0.0022
    139  CG2       32.8740   31.3670   41.5650 C.3   228  ILE228      0.0023
    140  CD1       34.2300   33.3820   39.5000 C.3   228  ILE228      0.0001
    141  N         33.4510   29.0370   37.7050 N.am  229  SER229     -0.1950
    142  CA        33.8890   28.7090   36.3610 C.3   229  SER229      0.1924
    143  C         33.8770   29.9740   35.5250 C.2   229  SER229      0.2314
    144  O         32.8140   30.5380   35.2520 O.2   229  SER229     -0.2863
    145  CB        32.9930   27.6220   35.8000 C.3   229  SER229      0.2116
    146  OG        33.1450   26.4650   36.6260 O.3   229  SER229     -0.2180
    147  N         29.6960   36.4400   34.0040 N.3   234  GLN234     -0.1245
    148  CA        28.5260   35.9410   33.2830 C.3   234  GLN234      0.1566
    149  C         27.2500   36.3200   34.0540 C.2   234  GLN234      0.2260
    150  O         27.2020   36.3070   35.3090 O.2   234  GLN234     -0.2867
    151  CB        28.6390   34.4290   33.0750 C.3   234  GLN234      0.0367
    152  CG        28.8260   33.6480   34.4090 C.3   234  GLN234      0.0905
    153  CD        30.2650   33.2760   34.7290 C.2   234  GLN234      0.2608
    154  OE1       31.1630   34.1300   34.7220 O.2   234  GLN234     -0.2717
    155  NE2       30.5120   32.0130   35.0380 N.am  234  GLN234     -0.0878
    156  N         22.8370   36.2710   34.6490 N.3   236  ARG236     -0.1245
    157  CA        21.5470   35.6130   34.5530 C.3   236  ARG236      0.1563
    158  C         20.5050   36.4450   35.2720 C.2   236  ARG236      0.2260
    159  O         20.8120   36.9920   36.3400 O.2   236  ARG236     -0.2867
    160  CB        21.4770   34.2660   35.2630 C.3   236  ARG236      0.0307
    161  CG        22.4480   33.2470   34.6750 C.3   236  ARG236      0.0489
    162  CD        22.0550   32.8030   33.2840 C.3   236  ARG236      0.2205
    163  NE        23.0020   31.7610   32.8370 N.pl3 236  ARG236     -0.0865
    164  CZ        24.1870   31.9890   32.2420 C.cat 236  ARG236      0.5346
    165  NH1       24.5970   33.2190   31.9840 N.pl3 236  ARG236      0.1354
    166  NH2       24.9620   30.9480   31.8820 N.pl3 236  ARG236      0.1354
    167  N         27.8660   36.5320   38.8630 N.3   275  LEU275     -0.1245
    168  CA        28.3140   35.8320   40.0740 C.3   275  LEU275      0.1561
    169  C         28.9960   36.8270   41.0170 C.2   275  LEU275      0.2260
    170  O         28.7850   36.8370   42.2170 O.2   275  LEU275     -0.2867
    171  CB        29.3410   34.7330   39.7320 C.3   275  LEU275      0.0270
    172  CG        28.6870   33.4280   39.3110 C.3   275  LEU275      0.0019
    173  CD1       27.6360   33.5940   38.1910 C.3   275  LEU275      0.0001
    174  CD2       29.7760   32.4050   38.9410 C.3   275  LEU275      0.0001
    175  N         33.1580   27.2430   31.7260 N.3   298  ARG298     -0.1245
    176  CA        32.4210   26.0800   31.3370 C.3   298  ARG298      0.1563
    177  C         32.3210   26.0900   29.8200 C.2   298  ARG298      0.2260
    178  O         31.9580   27.1190   29.2500 O.2   298  ARG298     -0.2867
    179  CB        31.0390   26.1060   31.9670 C.3   298  ARG298      0.0307
    180  CG        30.2280   24.8890   31.5820 C.3   298  ARG298      0.0489
    181  CD        28.9730   24.7920   32.4100 C.3   298  ARG298      0.2205
    182  NE        28.0010   25.7450   31.9130 N.pl3 298  ARG298     -0.0865
    183  CZ        26.8850   26.0620   32.5490 C.cat 298  ARG298      0.5346
    184  NH1       26.5910   25.4960   33.7210 N.pl3 298  ARG298      0.1354
    185  NH2       26.0510   26.9580   31.9950 N.pl3 298  ARG298      0.1354
    186  N         28.3700   27.5770   27.6580 N.3   301  ASP301     -0.1239
    187  CA        27.8900   28.6150   28.5480 C.3   301  ASP301      0.1674
    188  C         27.3890   29.8370   27.8170 C.2   301  ASP301      0.2266
    189  O         27.7540   30.1020   26.6800 O.2   301  ASP301     -0.2867
    190  CB        29.0210   29.0860   29.4980 C.3   301  ASP301      0.1410
    191  CG        28.4650   29.5970   30.8210 C.2   301  ASP301      0.3668
    192  OD1       27.2760   29.5220   31.1210 O.co2 301  ASP301     -0.2456
    193  OD2       29.3700   30.1480   31.6130 O.co2 301  ASP301     -0.2456
@<TRIPOS>BOND
     1    27    26    2
     2    26    25    1
     3    19    18    2
     4   189   188    2
     5    25    24    1
     6    25    28    1
     7    12    11    2
     8    18    24   am
     9    18    17    1
    10    36    35    2
    11    35    34    1
    12    33    34    1
    13    28    29    1
    14   186   187    1
    15   188   187    1
    16    17    16    1
    17    17    20    1
    18    34    37    1
    19    15    13    1
    20    11    16   am
    21    11    10    1
    22   187   190    1
    23    30    29    1
    24    30    31    1
    25     9    10    1
    26    20    21    1
    27   178   177    2
    28     8     7    1
    29    10    13    1
    30   190   191    1
    31    37    38    1
    32    13    14    1
    33   177   176    1
    34     7     6    1
    35    21    22    2
    36    21    23   am
    37    40    38   ar
    38    40    42   ar
    39    31    32    1
    40    38    39   ar
    41     6     5    1
    42    45    46    1
    43    42    43   ar
    44   191   192   ar
    45   191   193   ar
    46    39    41   ar
    47   176   175    1
    48   176   179    1
    49     4     3    2
    50   180   179    1
    51   180   181    1
    52    43    41   ar
    53    43    44    1
    54     5     2    1
    55    48    47    2
    56   166   164    1
    57   182   181    1
    58   182   183    2
    59    46    47    1
    60    46    49    1
    61   165   164    1
    62   185   183    1
    63    47    55   am
    64   164   163    2
    65     2     3    1
    66     2     1    1
    67   183   184    1
    68    55    56    1
    69   163   162    1
    70    59    56    1
    71    59    60    1
    72   151   148    1
    73   151   152    1
    74    56    57    1
    75    49    50    1
    76   148   147    1
    77   148   149    1
    78   162   161    1
    79    52    50   ar
    80    52    54   ar
    81    50    51   ar
    82    54    53   ar
    83   149   150    2
    84    51    53   ar
    85   152   153    1
    86   157   156    1
    87   157   160    1
    88   157   158    1
    89    57    58    2
    90    57    61   am
    91   161   160    1
    92   154   153    2
    93   153   155   am
    94   144   143    2
    95    61    62    1
    96   158   159    2
    97   143   142    1
    98   145   142    1
    99   145   146    1
   100    66    65    1
   101   142   141    1
   102    62    65    1
   103    62    63    1
   104    63    64    2
   105   141   135   am
   106    82    81    2
   107    95    93   ar
   108    95    96   ar
   109   173   172    1
   110    93    92   ar
   111   136   135    2
   112    85    84   ar
   113   135   134    1
   114    96    98   ar
   115    96    94   ar
   116    98   100   ar
   117   167   168    1
   118   174   172    1
   119    78    77    1
   120    81    80    1
   121    83    84    1
   122    83    80    1
   123   172   171    1
   124    92    94   ar
   125    92    91    1
   126    84    86   ar
   127   140   138    1
   128    80    79    1
   129    94    97   ar
   130   100    99   ar
   131   171   168    1
   132    76    77   ar
   133    76    74   ar
   134   138   137    1
   135    77    75   ar
   136    91    88    1
   137   134   137    1
   138   134   133    1
   139   168   169    1
   140   137   139    1
   141    97    99   ar
   142    74    72   ar
   143    70    69    2
   144    79    69   am
   145   133   128   am
   146    87    88    1
   147   169   170    2
   148    75    73   ar
   149    88    89    1
   150    69    68    1
   151   131   130    1
   152   130   132    1
   153   130   127    1
   154    72    73   ar
   155    72    71    1
   156   123   125   ar
   157   123   121   ar
   158   128   129    2
   159   128   127    1
   160   125   124   ar
   161    89    90    2
   162   127   126    1
   163    68    71    1
   164    68    67    1
   165   121   120   ar
   166   124   122   ar
   167   107   109   ar
   168   107   106   ar
   169   120   122   ar
   170   120   119    1
   171   109   110   ar
   172   105   106    1
   173   105   102    1
   174   106   108   ar
   175   110   108   ar
   176   110   112   ar
   177   119   116    1
   178   108   111   ar
   179   101   102    1
   180   102   103    1
   181   115   116    1
   182   115   103   am
   183   112   114   ar
   184   111   113   ar
   185   116   117    1
   186   103   104    2
   187   114   113   ar
   188   117   118    2
