@<TRIPOS>MOLECULE
tmp/1orwD06.pdb
 178 174 0 0 0
SMALL
GASTEIGER

@<TRIPOS>ATOM
      1  N         16.3720  -32.9340   60.8490 N.3    87  ARG87      -0.1231
      2  CA        16.6640  -34.1530   61.5800 C.3    87  ARG87       0.1694
      3  C         17.2640  -35.2660   60.7320 C.2    87  ARG87       0.2592
      4  O         18.1550  -35.9780   61.1770 O.2    87  ARG87      -0.2718
      5  CB        15.4020  -34.6640   62.2680 C.3    87  ARG87       0.0321
      6  CG        15.6640  -35.7830   63.2630 C.3    87  ARG87       0.0489
      7  CD        14.3980  -36.5390   63.5910 C.3    87  ARG87       0.2205
      8  NE        13.3800  -35.7110   64.2310 N.pl3  87  ARG87      -0.0865
      9  CZ        13.2780  -35.5200   65.5430 C.cat  87  ARG87       0.5346
     10  NH1       14.1420  -36.1000   66.3670 N.pl3  87  ARG87       0.1354
     11  NH2       12.3000  -34.7640   66.0340 N.pl3  87  ARG87       0.1354
     12  N         16.7860  -35.4140   59.5030 N.am   88  HIS88      -0.1976
     13  CA        17.2700  -36.4640   58.6140 C.3    88  HIS88       0.1656
     14  C         18.0260  -35.8800   57.4340 C.2    88  HIS88       0.2291
     15  O         19.0820  -36.3840   57.0560 O.2    88  HIS88      -0.2864
     16  CB        16.0830  -37.2800   58.1060 C.3    88  HIS88       0.0771
     17  CG        15.1890  -37.7830   59.1960 C.ar   88  HIS88       0.0820
     18  ND1       15.4760  -38.9090   59.9360 N.ar   88  HIS88      -0.2267
     19  CD2       14.0350  -37.2850   59.7030 C.ar   88  HIS88       0.1154
     20  CE1       14.5400  -39.0850   60.8530 C.ar   88  HIS88       0.1986
     21  NE2       13.6530  -38.1130   60.7340 N.ar   88  HIS88      -0.2212
     22  N          9.9920  -34.6010   58.7140 N.3   167  GLU167     -0.1231
     23  CA         9.8020  -34.7720   60.1330 C.3   167  GLU167      0.1699
     24  C          8.6080  -35.6180   60.5640 C.2   167  GLU167      0.2592
     25  O          8.7580  -36.5210   61.3900 O.2   167  GLU167     -0.2718
     26  CB         9.7240  -33.3920   60.7840 C.3   167  GLU167      0.0402
     27  CG         9.4660  -33.3880   62.2960 C.3   167  GLU167      0.1161
     28  CD        10.6030  -33.9730   63.1040 C.2   167  GLU167      0.3649
     29  OE1       11.7360  -34.0310   62.5830 O.co2 167  GLU167     -0.2457
     30  OE2       10.3670  -34.3580   64.2650 O.co2 167  GLU167     -0.2457
     31  N          7.4380  -35.3470   59.9900 N.am  168  GLU168     -0.1979
     32  CA         6.2060  -36.0290   60.3830 C.3   168  GLU168      0.1602
     33  C          5.6870  -37.2570   59.6520 C.2   168  GLU168      0.2287
     34  O          5.0260  -38.0840   60.2670 O.2   168  GLU168     -0.2864
     35  CB         5.0810  -35.0050   60.4590 C.3   168  GLU168      0.0415
     36  CG         5.4360  -33.7830   61.2980 C.3   168  GLU168      0.1163
     37  CD         5.6740  -34.1230   62.7540 C.2   168  GLU168      0.3649
     38  OE1        5.6160  -35.3280   63.1160 O.co2 168  GLU168     -0.2457
     39  OE2        5.9130  -33.1740   63.5320 O.co2 168  GLU168     -0.2457
     40  N          9.9260  -39.5840   58.0430 N.3   171  SER171     -0.1217
     41  CA        11.0880  -39.7190   58.9160 C.3   171  SER171      0.1889
     42  C         12.3080  -39.9270   58.0540 C.2   171  SER171      0.2288
     43  O         13.1990  -40.7020   58.3750 O.2   171  SER171     -0.2866
     44  CB        10.9200  -40.8790   59.8720 C.3   171  SER171      0.2089
     45  OG        10.1300  -40.4430   60.9550 O.3   171  SER171     -0.2183
     46  N          1.8340  -43.4390   64.9160 N.3   319  PHE319     -0.1227
     47  CA         2.3400  -42.1240   64.5330 C.3   319  PHE319      0.1736
     48  C          1.9830  -41.9740   63.0580 C.2   319  PHE319      0.2595
     49  O          1.8500  -40.8750   62.5200 O.2   319  PHE319     -0.2718
     50  CB         3.8480  -42.0790   64.7200 C.3   319  PHE319      0.0547
     51  CG         4.2740  -41.9640   66.1530 C.ar  319  PHE319     -0.0202
     52  CD1        4.1860  -40.7440   66.8210 C.ar  319  PHE319     -0.0042
     53  CD2        4.7290  -43.0780   66.8520 C.ar  319  PHE319     -0.0042
     54  CE1        4.5430  -40.6380   68.1680 C.ar  319  PHE319     -0.0003
     55  CE2        5.0890  -42.9840   68.2010 C.ar  319  PHE319     -0.0003
     56  CZ         4.9960  -41.7660   68.8590 C.ar  319  PHE319     -0.0000
     57  N          1.8390  -43.1220   62.4150 N.am  320  ARG320     -0.1980
     58  CA         1.4390  -43.2140   61.0230 C.3   320  ARG320      0.1597
     59  C          0.9720  -44.6530   60.8770 C.2   320  ARG320      0.2287
     60  O          1.3290  -45.5140   61.6810 O.2   320  ARG320     -0.2864
     61  CB         2.6040  -42.8730   60.0720 C.3   320  ARG320      0.0334
     62  CG         3.9310  -43.5490   60.4050 C.3   320  ARG320      0.0492
     63  CD         5.1260  -42.8100   59.8080 C.3   320  ARG320      0.2205
     64  NE         6.1500  -42.5640   60.8200 N.pl3 320  ARG320     -0.0865
     65  CZ         7.2750  -41.8820   60.6440 C.cat 320  ARG320      0.5346
     66  NH1        7.5690  -41.3400   59.4660 N.pl3 320  ARG320      0.1354
     67  NH2        8.0980  -41.7460   61.6740 N.pl3 320  ARG320      0.1354
     68  N          7.9930  -37.4850   79.2390 N.3   509  TYR509     -0.1241
     69  CA         7.8400  -37.1420   77.8360 C.3   509  TYR509      0.1605
     70  C          6.3340  -37.0580   77.6750 C.2   509  TYR509      0.2264
     71  O          5.7960  -35.9890   77.4170 O.2   509  TYR509     -0.2867
     72  CB         8.3990  -38.2030   76.9010 C.3   509  TYR509      0.0534
     73  CG         8.3210  -37.7510   75.4560 C.ar  509  TYR509     -0.0201
     74  CD1        9.0410  -36.6450   75.0150 C.ar  509  TYR509     -0.0009
     75  CD2        7.4780  -38.3940   74.5460 C.ar  509  TYR509     -0.0009
     76  CE1        8.9200  -36.1920   73.7120 C.ar  509  TYR509      0.0417
     77  CE2        7.3530  -37.9510   73.2430 C.ar  509  TYR509      0.0417
     78  CZ         8.0720  -36.8510   72.8300 C.ar  509  TYR509      0.1957
     79  OH         7.9420  -36.3970   71.5370 O.3   509  TYR509     -0.2866
     80  N         10.8180  -31.2020   74.5780 N.3   592  SER592     -0.1202
     81  CA         9.7430  -31.1560   73.5700 C.3   592  SER592      0.2020
     82  C          8.3590  -31.4010   74.1610 C.2   592  SER592      0.2618
     83  O          7.8730  -30.5990   74.9390 O.2   592  SER592     -0.2717
     84  CB        10.0410  -32.1780   72.4620 C.3   592  SER592      0.2103
     85  OG         9.2990  -31.8930   71.3070 O.3   592  SER592     -0.2182
     86  N          7.7120  -32.4950   73.7840 N.am  593  TYR593     -0.1975
     87  CA         6.3850  -32.7810   74.3230 C.3   593  TYR593      0.1639
     88  C          6.5380  -32.8600   75.8330 C.2   593  TYR593      0.2290
     89  O          5.6390  -32.4690   76.5830 O.2   593  TYR593     -0.2864
     90  CB         5.8310  -34.1150   73.7870 C.3   593  TYR593      0.0560
     91  CG         4.3380  -34.2660   74.0280 C.ar  593  TYR593     -0.0198
     92  CD1        3.8410  -34.6170   75.2810 C.ar  593  TYR593     -0.0009
     93  CD2        3.4150  -33.9540   73.0290 C.ar  593  TYR593     -0.0009
     94  CE1        2.4620  -34.6470   75.5340 C.ar  593  TYR593      0.0417
     95  CE2        2.0340  -33.9760   73.2720 C.ar  593  TYR593      0.0417
     96  CZ         1.5680  -34.3230   74.5230 C.ar  593  TYR593      0.1957
     97  OH         0.2130  -34.3540   74.7630 O.3   593  TYR593     -0.2866
     98  N          6.5490  -27.1930   73.9160 N.3   618  VAL618     -0.1245
     99  CA         5.4900  -26.7320   73.0380 C.3   618  VAL618      0.1561
    100  C          4.7450  -25.8990   74.0580 C.2   618  VAL618      0.2260
    101  O          4.7340  -26.2590   75.2260 O.2   618  VAL618     -0.2867
    102  CB         4.5810  -27.9010   72.5830 C.3   618  VAL618      0.0252
    103  CG1        3.2570  -27.3720   72.0880 C.3   618  VAL618      0.0019
    104  CG2        5.2580  -28.6950   71.4710 C.3   618  VAL618      0.0019
    105  N         -0.3990  -25.3910   70.9080 N.3   621  TRP621     -0.1241
    106  CA        -0.4440  -26.2430   69.7260 C.3   621  TRP621      0.1605
    107  C         -0.6190  -25.5330   68.4080 C.2   621  TRP621      0.2264
    108  O         -0.0800  -25.9740   67.4120 O.2   621  TRP621     -0.2867
    109  CB        -1.4920  -27.3320   69.8960 C.3   621  TRP621      0.0550
    110  CG        -1.0850  -28.2830   70.9810 C.ar  621  TRP621      0.0003
    111  CD1       -1.5910  -28.3510   72.2480 C.ar  621  TRP621      0.0946
    112  CD2       -0.0100  -29.2330   70.9290 C.ar  621  TRP621      0.0152
    113  NE1       -0.8940  -29.2800   72.9860 N.ar  621  TRP621     -0.2442
    114  CE2        0.0800  -29.8330   72.2000 C.ar  621  TRP621      0.0810
    115  CE3        0.8890  -29.6260   69.9330 C.ar  621  TRP621      0.0012
    116  CZ2        1.0330  -30.8040   72.5010 C.ar  621  TRP621      0.0191
    117  CZ3        1.8350  -30.5870   70.2320 C.ar  621  TRP621      0.0001
    118  CH2        1.9010  -31.1660   71.5050 C.ar  621  TRP621      0.0015
    119  N          2.6160  -25.5300   66.6290 N.3   624  TYR624     -0.1241
    120  CA         3.2650  -26.7180   66.0820 C.3   624  TYR624      0.1605
    121  C          2.7490  -27.0740   64.6840 C.2   624  TYR624      0.2264
    122  O          1.7300  -26.5240   64.2440 O.2   624  TYR624     -0.2867
    123  CB         3.0850  -27.9050   67.0210 C.3   624  TYR624      0.0534
    124  CG         4.1940  -28.9030   66.8370 C.ar  624  TYR624     -0.0201
    125  CD1        5.5250  -28.4740   66.8020 C.ar  624  TYR624     -0.0009
    126  CD2        3.9290  -30.2600   66.6510 C.ar  624  TYR624     -0.0009
    127  CE1        6.5620  -29.3600   66.5780 C.ar  624  TYR624      0.0417
    128  CE2        4.9680  -31.1670   66.4260 C.ar  624  TYR624      0.0417
    129  CZ         6.2780  -30.7000   66.3890 C.ar  624  TYR624      0.1957
    130  OH         7.3110  -31.5610   66.1470 O.3   624  TYR624     -0.2866
    131  N          1.3860  -33.4210   62.6180 N.3   628  TYR628     -0.1241
    132  CA         1.4200  -33.9750   63.9720 C.3   628  TYR628      0.1605
    133  C          0.2990  -33.4310   64.8610 C.2   628  TYR628      0.2264
    134  O         -0.4320  -34.1980   65.4880 O.2   628  TYR628     -0.2867
    135  CB         2.7750  -33.6810   64.6290 C.3   628  TYR628      0.0534
    136  CG         2.9300  -34.2070   66.0500 C.ar  628  TYR628     -0.0201
    137  CD1        2.3200  -33.5710   67.1350 C.ar  628  TYR628     -0.0009
    138  CD2        3.6630  -35.3580   66.3020 C.ar  628  TYR628     -0.0009
    139  CE1        2.4380  -34.0780   68.4260 C.ar  628  TYR628      0.0417
    140  CE2        3.7860  -35.8720   67.5870 C.ar  628  TYR628      0.0417
    141  CZ         3.1730  -35.2350   68.6380 C.ar  628  TYR628      0.1957
    142  OH         3.2860  -35.7840   69.8940 O.3   628  TYR628     -0.2866
    143  N         -3.2700  -34.3990   63.9090 N.3   631  ARG631     -0.1245
    144  CA        -3.4590  -35.8330   64.0770 C.3   631  ARG631      0.1563
    145  C         -4.0200  -36.1600   65.4590 C.2   631  ARG631      0.2260
    146  O         -4.6840  -37.1740   65.6270 O.2   631  ARG631     -0.2867
    147  CB        -2.1340  -36.5900   63.8680 C.3   631  ARG631      0.0307
    148  CG        -2.1910  -38.0650   64.3020 C.3   631  ARG631      0.0489
    149  CD        -1.1280  -38.9280   63.6430 C.3   631  ARG631      0.2205
    150  NE         0.1480  -38.8680   64.3390 N.pl3 631  ARG631     -0.0865
    151  CZ         1.2720  -38.3620   63.8310 C.cat 631  ARG631      0.5346
    152  NH1        1.2970  -37.8560   62.5970 N.pl3 631  ARG631      0.1354
    153  NH2        2.3860  -38.3720   64.5610 N.pl3 631  ARG631      0.1354
    154  N         12.1950  -27.0840   64.5400 N.3   672  ASN672     -0.1225
    155  CA        11.0950  -27.9810   64.8520 C.3   672  ASN672      0.1785
    156  C         10.1010  -27.3020   65.7890 C.2   672  ASN672      0.2597
    157  O          8.9990  -26.9520   65.3860 O.2   672  ASN672     -0.2718
    158  CB        11.6340  -29.2520   65.4900 C.3   672  ASN672      0.1169
    159  CG        10.5540  -30.2450   65.7600 C.2   672  ASN672      0.2627
    160  OD1        9.3740  -29.9250   65.6480 O.2   672  ASN672     -0.2716
    161  ND2       10.9370  -31.4600   66.1250 N.am  672  ASN672     -0.0877
    162  N         10.4830  -27.1510   67.0510 N.am  673  VAL673     -0.1980
    163  CA         9.6450  -26.4600   68.0230 C.3   673  VAL673      0.1595
    164  C         10.2750  -25.0720   68.0410 C.2   673  VAL673      0.2287
    165  O         11.2940  -24.8370   68.6870 O.2   673  VAL673     -0.2864
    166  CB         9.7380  -27.1130   69.4190 C.3   673  VAL673      0.0276
    167  CG1        8.8920  -26.3360   70.4240 C.3   673  VAL673      0.0022
    168  CG2        9.2640  -28.5710   69.3340 C.3   673  VAL673      0.0022
    169  N         16.5780  -27.9080   68.0600 N.3   702  HIS702     -0.1241
    170  CA        15.7920  -28.7750   68.9310 C.3   702  HIS702      0.1621
    171  C         16.5880  -29.7700   69.7660 C.2   702  HIS702      0.2264
    172  O         16.2140  -30.1130   70.8890 O.2   702  HIS702     -0.2867
    173  CB        14.7520  -29.5170   68.0960 C.3   702  HIS702      0.0745
    174  CG        13.6270  -30.0680   68.9040 C.ar  702  HIS702      0.0817
    175  ND1       12.8720  -29.2870   69.7500 N.ar  702  HIS702     -0.2268
    176  CD2       13.1430  -31.3250   69.0190 C.ar  702  HIS702      0.1154
    177  CE1       11.9730  -30.0390   70.3550 C.ar  702  HIS702      0.1986
    178  NE2       12.1150  -31.2800   69.9280 N.ar  702  HIS702     -0.2212
@<TRIPOS>BOND
     1    15    14    2
     2    14    13    1
     3    40    41    1
     4    42    43    2
     5    42    41    1
     6    16    13    1
     7    16    17    1
     8    13    12    1
     9    22    23    1
    10    41    44    1
    11    17    19   ar
    12    17    18   ar
    13    66    65    1
    14    12     3   am
    15    33    34    2
    16    33    32    1
    17    19    21   ar
    18    63    62    1
    19    63    64    1
    20    44    45    1
    21    18    20   ar
    22    31    32    1
    23    31    24   am
    24    61    62    1
    25    61    58    1
    26    23    24    1
    27    23    26    1
    28    32    35    1
    29    35    36    1
    30    24    25    2
    31    65    64    2
    32    65    67    1
    33     3     4    2
    34     3     2    1
    35    21    20   ar
    36    26    27    1
    37     1     2    1
    38    59    58    1
    39    59    60    2
    40    58    57    1
    41    36    37    1
    42     2     5    1
    43     5     6    1
    44    27    28    1
    45    57    48   am
    46    49    48    2
    47    29    28   ar
    48   152   151    1
    49   131   132    1
    50    37    38   ar
    51    37    39   ar
    52    48    47    1
    53    28    30   ar
    54     6     7    1
    55     7     8    1
    56   149   148    1
    57   149   150    1
    58   151   150    2
    59   151   153    1
    60   147   144    1
    61   147   148    1
    62   143   144    1
    63   132   135    1
    64   132   133    1
    65   144   145    1
    66     8     9    2
    67   122   121    2
    68    47    50    1
    69    47    46    1
    70   154   155    1
    71   135   136    1
    72   121   120    1
    73    50    51    1
    74   155   158    1
    75   155   156    1
    76   133   134    2
    77   157   156    2
    78   145   146    2
    79   158   159    1
    80     9    11    1
    81     9    10    1
    82   160   159    2
    83   159   161   am
    84   156   162   am
    85   136   138   ar
    86   136   137   ar
    87   120   119    1
    88   120   123    1
    89   130   129    1
    90    51    52   ar
    91    51    53   ar
    92   138   140   ar
    93   129   128   ar
    94   129   127   ar
    95   128   126   ar
    96   127   125   ar
    97   126   124   ar
    98   125   124   ar
    99    52    54   ar
   100   124   123    1
   101    53    55   ar
   102   162   163    1
   103   137   139   ar
   104   108   107    2
   105   140   141   ar
   106   163   164    1
   107   163   166    1
   108   164   165    2
   109   169   170    1
   110   173   174    1
   111   173   170    1
   112    54    56   ar
   113    55    56   ar
   114   107   106    1
   115   139   141   ar
   116   141   142    1
   117   174   176   ar
   118   174   175   ar
   119   170   171    1
   120   176   178   ar
   121   168   166    1
   122   166   167    1
   123   106   109    1
   124   106   105    1
   125   175   177   ar
   126   171   172    2
   127   109   110    1
   128   178   177   ar
   129   115   117   ar
   130   115   112   ar
   131   117   118   ar
   132   112   110   ar
   133   112   114   ar
   134   110   111   ar
   135    85    84    1
   136   104   102    1
   137   118   116   ar
   138    79    78    1
   139   103   102    1
   140   114   116   ar
   141   114   113   ar
   142   111   113   ar
   143    84    81    1
   144   102    99    1
   145    78    77   ar
   146    78    76   ar
   147    93    95   ar
   148    93    91   ar
   149    99    98    1
   150    99   100    1
   151    77    75   ar
   152    95    96   ar
   153    81    82    1
   154    81    80    1
   155    76    74   ar
   156    86    82   am
   157    86    87    1
   158    90    91    1
   159    90    87    1
   160    91    92   ar
   161   100   101    2
   162    82    83    2
   163    87    88    1
   164    96    97    1
   165    96    94   ar
   166    75    73   ar
   167    74    73   ar
   168    92    94   ar
   169    73    72    1
   170    88    89    2
   171    72    69    1
   172    71    70    2
   173    70    69    1
   174    69    68    1
