@<TRIPOS>MOLECULE
tmp/1os0A00.pdb
 218 215 0 0 0
SMALL
GASTEIGER

@<TRIPOS>ATOM
      1  N         29.5410   32.7210    2.4610 N.3   110  TYR110     -0.1227
      2  CA        30.0990   33.2610    1.2320 C.3   110  TYR110      0.1736
      3  C         31.1830   34.2830    1.5480 C.2   110  TYR110      0.2595
      4  O         30.9450   35.2810    2.2180 O.2   110  TYR110     -0.2718
      5  CB        28.9580   33.8500    0.4030 C.3   110  TYR110      0.0548
      6  CG        29.3820   34.3400   -0.9490 C.ar  110  TYR110     -0.0200
      7  CD1       29.6730   33.4260   -1.9520 C.ar  110  TYR110     -0.0009
      8  CD2       29.4970   35.6890   -1.2320 C.ar  110  TYR110     -0.0009
      9  CE1       30.0650   33.8530   -3.2040 C.ar  110  TYR110      0.0417
     10  CE2       29.8880   36.1150   -2.4810 C.ar  110  TYR110      0.0417
     11  CZ        30.1750   35.1990   -3.4690 C.ar  110  TYR110      0.1957
     12  OH        30.5680   35.6240   -4.7220 O.3   110  TYR110     -0.2866
     13  N         32.4020   34.0240    1.0900 N.am  111  ASN111     -0.1960
     14  CA        33.5830   34.8250    1.3850 C.3   111  ASN111      0.1819
     15  C         33.8500   35.8470    0.2960 C.2   111  ASN111      0.2621
     16  O         34.9280   35.9360   -0.3020 O.2   111  ASN111     -0.2715
     17  CB        34.8280   33.9380    1.5550 C.3   111  ASN111      0.1195
     18  CG        34.8430   33.1800    2.8660 C.2   111  ASN111      0.2630
     19  OD1       34.5060   33.6860    3.9390 O.2   111  ASN111     -0.2716
     20  ND2       35.2510   31.9220    2.7880 N.am  111  ASN111     -0.0877
     21  N         32.8200   36.6490   -0.0070 N.am  112  ASN112     -0.1958
     22  CA        33.0560   37.6800   -1.0150 C.3   112  ASN112      0.1819
     23  C         31.9230   38.6960   -1.0000 C.2   112  ASN112      0.2621
     24  O         30.9300   38.5390   -0.2880 O.2   112  ASN112     -0.2715
     25  CB        33.2480   37.0330   -2.3760 C.3   112  ASN112      0.1195
     26  CG        34.4260   37.5880   -3.1370 C.2   112  ASN112      0.2630
     27  OD1       34.8680   38.7030   -2.8850 O.2   112  ASN112     -0.2716
     28  ND2       34.9600   36.8260   -4.0810 N.am  112  ASN112     -0.0877
     29  N         32.1400   39.7310   -1.7790 N.am  113  ALA113     -0.1963
     30  CA        31.1960   40.7730   -2.1140 C.3   113  ALA113      0.1728
     31  C         31.3650   41.1110   -3.5990 C.2   113  ALA113      0.2616
     32  O         32.3790   40.8000   -4.2160 O.2   113  ALA113     -0.2715
     33  CB        31.3600   42.0190   -1.2750 C.3   113  ALA113      0.0334
     34  N         30.3450   41.7590   -4.1510 N.am  114  PHE114     -0.1960
     35  CA        30.3810   42.1280   -5.5480 C.3   114  PHE114      0.1771
     36  C         29.2260   43.0420   -5.9580 C.2   114  PHE114      0.2619
     37  O         28.1930   43.1300   -5.2960 O.2   114  PHE114     -0.2715
     38  CB        30.3510   40.8650   -6.4120 C.3   114  PHE114      0.0574
     39  CG        29.1600   39.9340   -6.2710 C.ar  114  PHE114     -0.0200
     40  CD1       29.1710   38.8830   -5.3710 C.ar  114  PHE114     -0.0042
     41  CD2       28.0250   40.0930   -7.0550 C.ar  114  PHE114     -0.0042
     42  CE1       28.1080   38.0090   -5.2400 C.ar  114  PHE114     -0.0003
     43  CE2       26.9510   39.2310   -6.9210 C.ar  114  PHE114     -0.0003
     44  CZ        26.9700   38.1800   -6.0100 C.ar  114  PHE114     -0.0000
     45  N         29.4550   43.7090   -7.0780 N.am  115  TRP115     -0.1974
     46  CA        28.4830   44.5140   -7.8080 C.3   115  TRP115      0.1640
     47  C         27.9980   43.6710   -8.9720 C.2   115  TRP115      0.2290
     48  O         28.8470   43.1910   -9.7320 O.2   115  TRP115     -0.2864
     49  CB        29.1320   45.8200   -8.2410 C.3   115  TRP115      0.0576
     50  CG        28.3750   46.5960   -9.2680 C.ar  115  TRP115      0.0006
     51  CD1       28.5590   46.6260  -10.6190 C.ar  115  TRP115      0.0946
     52  CD2       27.2880   47.4800   -9.0000 C.ar  115  TRP115      0.0152
     53  NE1       27.6590   47.4670  -11.2090 N.ar  115  TRP115     -0.2442
     54  CE2       26.8680   48.0020  -10.2320 C.ar  115  TRP115      0.0810
     55  CE3       26.6550   47.8560   -7.8160 C.ar  115  TRP115      0.0012
     56  CZ2       25.8150   48.9040  -10.3350 C.ar  115  TRP115      0.0191
     57  CZ3       25.6120   48.7510   -7.9290 C.ar  115  TRP115      0.0001
     58  CH2       25.2140   49.2520   -9.1630 C.ar  115  TRP115      0.0015
     59  N         37.9600   32.9920    7.3020 N.3   129  THR129     -0.1203
     60  CA        38.5770   33.8340    6.2870 C.3   129  THR129      0.1994
     61  C         38.0430   35.2550    6.4280 C.2   129  THR129      0.2617
     62  O         38.7980   36.2250    6.4020 O.2   129  THR129     -0.2717
     63  CB        38.3040   33.2800    4.8790 C.3   129  THR129      0.1784
     64  OG1       38.6260   31.8790    4.8470 O.3   129  THR129     -0.2211
     65  CG2       39.1770   33.9450    3.8240 C.3   129  THR129      0.0376
     66  N         36.7230   35.3650    6.5880 N.am  130  PHE130     -0.1975
     67  CA        36.0670   36.6630    6.6570 C.3   130  PHE130      0.1639
     68  C         34.8880   36.6030    7.6310 C.2   130  PHE130      0.2290
     69  O         34.3230   35.5230    7.7830 O.2   130  PHE130     -0.2864
     70  CB        35.4890   37.0890    5.3200 C.3   130  PHE130      0.0560
     71  CG        36.3770   37.6400    4.2270 C.ar  130  PHE130     -0.0200
     72  CD1       36.8920   38.9250    4.3010 C.ar  130  PHE130     -0.0042
     73  CD2       36.6970   36.8760    3.1110 C.ar  130  PHE130     -0.0042
     74  CE1       37.6960   39.4530    3.3180 C.ar  130  PHE130     -0.0003
     75  CE2       37.5010   37.4020    2.1200 C.ar  130  PHE130     -0.0003
     76  CZ        37.9970   38.6880    2.2150 C.ar  130  PHE130     -0.0000
     77  N         31.1210   40.9580    5.0970 N.3   133  LEU133     -0.1245
     78  CA        32.0350   41.8370    4.3810 C.3   133  LEU133      0.1561
     79  C         31.6310   43.2970    4.4280 C.2   133  LEU133      0.2260
     80  O         32.4490   44.2000    4.2110 O.2   133  LEU133     -0.2867
     81  CB        32.1800   41.2870    2.9440 C.3   133  LEU133      0.0270
     82  CG        33.2390   40.1580    2.9000 C.3   133  LEU133      0.0019
     83  CD1       32.5940   38.8210    3.1960 C.3   133  LEU133      0.0001
     84  CD2       33.9840   40.1580    1.5830 C.3   133  LEU133      0.0001
     85  N         36.1700   50.0200    3.5580 N.3   138  ASP138     -0.1225
     86  CA        36.9230   50.0170    2.2930 C.3   138  ASP138      0.1805
     87  C         36.3390   48.9760    1.3390 C.2   138  ASP138      0.2597
     88  O         36.4550   49.0630    0.1090 O.2   138  ASP138     -0.2718
     89  CB        38.4120   49.8160    2.4820 C.3   138  ASP138      0.1424
     90  CG        38.8730   48.5970    3.2340 C.2   138  ASP138      0.3668
     91  OD1       38.0530   47.7080    3.5480 O.co2 138  ASP138     -0.2456
     92  OD2       40.0930   48.5340    3.5140 O.co2 138  ASP138     -0.2456
     93  N         35.6690   47.9770    1.8970 N.am  139  VAL139     -0.1980
     94  CA        34.9800   46.9950    1.0660 C.3   139  VAL139      0.1595
     95  C         33.7820   47.6140    0.3440 C.2   139  VAL139      0.2287
     96  O         33.5840   47.5340   -0.8720 O.2   139  VAL139     -0.2864
     97  CB        34.4610   45.8080    1.9060 C.3   139  VAL139      0.0276
     98  CG1       33.7390   44.8230    0.9950 C.3   139  VAL139      0.0022
     99  CG2       35.5780   45.1120    2.6530 C.3   139  VAL139      0.0022
    100  N         34.7380   50.0430   -2.2290 N.3   142  HIS142     -0.1226
    101  CA        35.3260   49.2960   -3.3350 C.3   142  HIS142      0.1752
    102  C         34.2100   48.9100   -4.2920 C.2   142  HIS142      0.2595
    103  O         34.3020   49.0420   -5.5110 O.2   142  HIS142     -0.2718
    104  CB        36.0880   48.0780   -2.8000 C.3   142  HIS142      0.0759
    105  CG        36.6590   47.1570   -3.8350 C.ar  142  HIS142      0.0818
    106  ND1       38.0040   47.1140   -4.1480 N.ar  142  HIS142     -0.2268
    107  CD2       36.0900   46.2310   -4.6390 C.ar  142  HIS142      0.1154
    108  CE1       38.2150   46.2160   -5.0940 C.ar  142  HIS142      0.1986
    109  NE2       37.0620   45.6530   -5.4250 N.ar  142  HIS142     -0.2212
    110  N         33.1310   48.3980   -3.6930 N.am  143  GLU143     -0.1979
    111  CA        32.0400   47.8690   -4.5140 C.3   143  GLU143      0.1602
    112  C         31.2950   48.9880   -5.2240 C.2   143  GLU143      0.2287
    113  O         30.9980   48.9050   -6.4150 O.2   143  GLU143     -0.2864
    114  CB        31.0710   47.0350   -3.6710 C.3   143  GLU143      0.0415
    115  CG        31.6290   45.7390   -3.1100 C.3   143  GLU143      0.1163
    116  CD        32.3890   44.8660   -4.0860 C.2   143  GLU143      0.3649
    117  OE1       32.0560   44.8230   -5.2860 O.co2 143  GLU143     -0.2457
    118  OE2       33.3580   44.1940   -3.6800 O.co2 143  GLU143     -0.2457
    119  N         33.0590   50.1850   -8.2250 N.3   146  HIS146     -0.1241
    120  CA        32.8840   49.3790   -9.4280 C.3   146  HIS146      0.1621
    121  C         31.7080   49.9020  -10.2520 C.2   146  HIS146      0.2264
    122  O         31.7530   49.8860  -11.4780 O.2   146  HIS146     -0.2867
    123  CB        32.6690   47.9020   -9.0990 C.3   146  HIS146      0.0745
    124  CG        33.9100   47.0910   -8.8740 C.ar  146  HIS146      0.0817
    125  ND1       34.9680   47.0720   -9.7580 N.ar  146  HIS146     -0.2268
    126  CD2       34.2600   46.2540   -7.8640 C.ar  146  HIS146      0.1154
    127  CE1       35.9140   46.2730   -9.2950 C.ar  146  HIS146      0.1986
    128  NE2       35.5130   45.7630   -8.1490 N.ar  146  HIS146     -0.2212
    129  N         36.7020   43.7790  -17.5220 N.3   157  TYR157     -0.1241
    130  CA        37.2500   43.0900  -16.3670 C.3   157  TYR157      0.1605
    131  C         38.1290   41.9050  -16.7300 C.2   157  TYR157      0.2264
    132  O         37.8240   40.7690  -16.3570 O.2   157  TYR157     -0.2867
    133  CB        36.1160   42.6030  -15.4660 C.3   157  TYR157      0.0534
    134  CG        36.4480   42.5370  -13.9940 C.ar  157  TYR157     -0.0201
    135  CD1       36.8690   43.6380  -13.2650 C.ar  157  TYR157     -0.0009
    136  CD2       36.3210   41.3250  -13.3190 C.ar  157  TYR157     -0.0009
    137  CE1       37.1630   43.5420  -11.9120 C.ar  157  TYR157      0.0417
    138  CE2       36.6050   41.2100  -11.9740 C.ar  157  TYR157      0.0417
    139  CZ        37.0250   42.3260  -11.2800 C.ar  157  TYR157      0.1957
    140  OH        37.3080   42.2130   -9.9410 O.3   157  TYR157     -0.2866
    141  N         40.2150   47.2010  -10.8960 N.3   166  GLU166     -0.1245
    142  CA        40.4140   46.8070   -9.5080 C.3   166  GLU166      0.1567
    143  C         41.1820   47.8510   -8.7000 C.2   166  GLU166      0.2260
    144  O         40.8050   48.2000   -7.5740 O.2   166  GLU166     -0.2867
    145  CB        41.1600   45.4680   -9.4540 C.3   166  GLU166      0.0388
    146  CG        40.2510   44.2420   -9.4290 C.3   166  GLU166      0.1160
    147  CD        39.2590   44.3440   -8.2920 C.2   166  GLU166      0.3649
    148  OE1       39.7320   44.4230   -7.1310 O.co2 166  GLU166     -0.2457
    149  OE2       38.0550   44.3590   -8.5800 O.co2 166  GLU166     -0.2457
    150  N         43.9210   46.9840    2.5780 N.3   188  ILE188     -0.1231
    151  CA        42.6160   46.6620    2.0180 C.3   188  ILE188      0.1692
    152  C         41.9700   45.4620    2.7060 C.2   188  ILE188      0.2592
    153  O         42.5340   44.3630    2.6920 O.2   188  ILE188     -0.2718
    154  CB        42.7340   46.3640    0.5130 C.3   188  ILE188      0.0266
    155  CG1       43.3180   47.4960   -0.3300 C.3   188  ILE188      0.0019
    156  CG2       41.3770   45.9320   -0.0430 C.3   188  ILE188      0.0020
    157  CD1       42.4500   48.7360   -0.3720 C.3   188  ILE188      0.0001
    158  N         40.7970   45.6820    3.2930 N.am  189  GLY189     -0.1957
    159  CA        39.9970   44.6610    3.9190 C.3   189  GLY189      0.1869
    160  C         40.3620   44.2780    5.3270 C.2   189  GLY189      0.2309
    161  O         39.8540   43.2790    5.8520 O.2   189  GLY189     -0.2863
    162  N         38.8400   40.8030    7.3970 N.3   193  TYR193     -0.1241
    163  CA        39.6420   39.6490    7.0090 C.3   193  TYR193      0.1605
    164  C         40.2590   38.9240    8.2000 C.2   193  TYR193      0.2264
    165  O         40.7330   39.5930    9.1190 O.2   193  TYR193     -0.2867
    166  CB        40.7410   40.1280    6.0620 C.3   193  TYR193      0.0534
    167  CG        41.5690   39.0540    5.4060 C.ar  193  TYR193     -0.0201
    168  CD1       40.9890   38.1190    4.5630 C.ar  193  TYR193     -0.0009
    169  CD2       42.9370   38.9720    5.6290 C.ar  193  TYR193     -0.0009
    170  CE1       41.7450   37.1320    3.9620 C.ar  193  TYR193      0.0417
    171  CE2       43.7040   37.9880    5.0280 C.ar  193  TYR193      0.0417
    172  CZ        43.1050   37.0680    4.1920 C.ar  193  TYR193      0.1957
    173  OH        43.8580   36.0850    3.5860 O.3   193  TYR193     -0.2866
    174  N         43.8940   41.8450    3.3110 N.3   202  LEU202     -0.1231
    175  CA        43.7770   41.1020    2.0660 C.3   202  LEU202      0.1693
    176  C         44.7970   41.5940    1.0590 C.2   202  LEU202      0.2591
    177  O         45.4730   40.8170    0.3900 O.2   202  LEU202     -0.2718
    178  CB        42.3410   41.2400    1.5580 C.3   202  LEU202      0.0284
    179  CG        42.0030   40.5140    0.2600 C.3   202  LEU202      0.0019
    180  CD1       42.3440   39.0390    0.4080 C.3   202  LEU202      0.0001
    181  CD2       40.5470   40.7260   -0.1140 C.3   202  LEU202      0.0001
    182  N         44.9150   42.9110    0.9420 N.am  203  ARG203     -0.1980
    183  CA        45.8790   43.5210    0.0490 C.3   203  ARG203      0.1597
    184  C         46.5050   44.7200    0.7680 C.2   203  ARG203      0.2287
    185  O         45.8970   45.2070    1.7100 O.2   203  ARG203     -0.2864
    186  CB        45.2800   44.0220   -1.2700 C.3   203  ARG203      0.0334
    187  CG        44.7740   42.9250   -2.1900 C.3   203  ARG203      0.0492
    188  CD        44.2420   43.4890   -3.4900 C.3   203  ARG203      0.2205
    189  NE        42.9230   44.0930   -3.3820 N.pl3 203  ARG203     -0.0865
    190  CZ        41.7590   43.4590   -3.3410 C.cat 203  ARG203      0.5346
    191  NH1       41.6680   42.1360   -3.3810 N.pl3 203  ARG203      0.1354
    192  NH2       40.6170   44.1310   -3.2540 N.pl3 203  ARG203      0.1354
    193  N         42.1490   34.3150  -12.3420 N.3   226  ASP226     -0.1225
    194  CA        41.6550   35.5930  -11.8290 C.3   226  ASP226      0.1805
    195  C         41.4660   36.6020  -12.9530 C.2   226  ASP226      0.2597
    196  O         41.8580   37.7600  -12.8120 O.2   226  ASP226     -0.2718
    197  CB        42.6360   36.1560  -10.8150 C.3   226  ASP226      0.1424
    198  CG        42.2120   37.3930  -10.0600 C.2   226  ASP226      0.3668
    199  OD1       41.0080   37.5730   -9.7960 O.co2 226  ASP226     -0.2456
    200  OD2       43.1030   38.2050   -9.7170 O.co2 226  ASP226     -0.2456
    201  N         40.8910   36.1580  -14.0490 N.am  227  ASN227     -0.1974
    202  CA        40.6580   36.9590  -15.2480 C.3   227  ASN227      0.1688
    203  C         41.9150   37.6370  -15.7740 C.2   227  ASN227      0.2292
    204  O         41.9050   38.7760  -16.2560 O.2   227  ASN227     -0.2864
    205  CB        39.5700   38.0040  -14.9430 C.3   227  ASN227      0.1181
    206  CG        38.2720   37.3020  -14.5550 C.2   227  ASN227      0.2629
    207  OD1       37.8510   37.3330  -13.3960 O.2   227  ASN227     -0.2716
    208  ND2       37.6670   36.6630  -15.5510 N.am  227  ASN227     -0.0877
    209  N         43.0500   41.0080   -9.5970 N.3   231  HIS231     -0.1241
    210  CA        43.2970   41.3540   -8.2100 C.3   231  HIS231      0.1621
    211  C         44.7800   41.2410   -7.8260 C.2   231  HIS231      0.2264
    212  O         45.1660   41.5370   -6.6900 O.2   231  HIS231     -0.2867
    213  CB        42.4770   40.4640   -7.2680 C.3   231  HIS231      0.0745
    214  CG        41.0020   40.5830   -7.4500 C.ar  231  HIS231      0.0817
    215  ND1       40.2710   39.7850   -8.3010 N.ar  231  HIS231     -0.2268
    216  CD2       40.1040   41.4110   -6.8710 C.ar  231  HIS231      0.1154
    217  CE1       38.9950   40.1120   -8.2520 C.ar  231  HIS231      0.1986
    218  NE2       38.8690   41.0990   -7.3900 N.ar  231  HIS231     -0.2212
@<TRIPOS>BOND
     1   129   130    1
     2   131   130    1
     3   131   132    2
     4   130   133    1
     5   204   203    2
     6   203   202    1
     7   208   206   am
     8   133   134    1
     9   202   205    1
    10   202   201    1
    11   205   206    1
    12   206   207    2
    13   201   195   am
    14   134   136   ar
    15   134   135   ar
    16   136   138   ar
    17   135   137   ar
    18   195   196    2
    19   195   194    1
    20   193   194    1
    21   138   139   ar
    22   137   139   ar
    23   194   197    1
    24   122   121    2
    25   139   140    1
    26    53    51   ar
    27    53    54   ar
    28   141   142    1
    29   197   198    1
    30    51    50   ar
    31    56    54   ar
    32    56    58   ar
    33   121   120    1
    34    54    52   ar
    35   198   199   ar
    36   198   200   ar
    37   125   127   ar
    38   125   124   ar
    39    48    47    2
    40   209   210    1
    41   142   145    1
    42   142   143    1
    43   145   146    1
    44   146   147    1
    45   120   123    1
    46   120   119    1
    47   127   128   ar
    48    50    52   ar
    49    50    49    1
    50    58    57   ar
    51   123   124    1
    52    52    55   ar
    53    47    46    1
    54   124   126   ar
    55   143   144    2
    56   149   147   ar
    57   215   217   ar
    58   215   214   ar
    59   147   148   ar
    60   217   218   ar
    61    49    46    1
    62   210   211    1
    63   210   213    1
    64   128   126   ar
    65    57    55   ar
    66   211   212    2
    67    46    45    1
    68   214   213    1
    69   214   216   ar
    70   218   216   ar
    71    45    36   am
    72    41    43   ar
    73    41    39   ar
    74    43    44   ar
    75   113   112    2
    76    38    39    1
    77    38    35    1
    78    39    40   ar
    79    44    42   ar
    80    36    35    1
    81    36    37    2
    82    35    34    1
    83   103   102    2
    84   109   108   ar
    85   109   107   ar
    86    40    42   ar
    87   117   116   ar
    88   112   111    1
    89   108   106   ar
    90    12    11    1
    91   107   105   ar
    92   111   110    1
    93   111   114    1
    94   102   110   am
    95   102   101    1
    96    32    31    2
    97    34    31   am
    98   106   105   ar
    99   116   118   ar
   100   116   115    1
   101    28    26   am
   102   105   104    1
   103   114   115    1
   104    31    30    1
   105   188   189    1
   106   188   187    1
   107    11     9   ar
   108    11    10   ar
   109   189   190    2
   110   191   190    1
   111   190   192    1
   112   101   104    1
   113   101   100    1
   114     9     7   ar
   115    26    27    2
   116    26    25    1
   117    10     8   ar
   118    25    22    1
   119   187   186    1
   120    30    29    1
   121    30    33    1
   122     7     6   ar
   123    29    23   am
   124   186   183    1
   125     8     6   ar
   126    22    23    1
   127    22    21    1
   128    23    24    2
   129     6     5    1
   130    96    95    2
   131   157   155    1
   132   155   154    1
   133    16    15    2
   134   181   179    1
   135   156   154    1
   136    21    15   am
   137   183   184    1
   138   183   182    1
   139    88    87    2
   140   179   180    1
   141   179   178    1
   142    15    14    1
   143    95    94    1
   144   177   176    2
   145     5     2    1
   146   154   151    1
   147   184   185    2
   148   182   176   am
   149    98    97    1
   150   176   175    1
   151    94    93    1
   152    94    97    1
   153    13    14    1
   154    13     3   am
   155     2     3    1
   156     2     1    1
   157    87    93   am
   158    87    86    1
   159    14    17    1
   160     3     4    2
   161    17    18    1
   162   178   175    1
   163    84    82    1
   164    97    99    1
   165   151   150    1
   166   151   152    1
   167   175   174    1
   168    75    76   ar
   169    75    73   ar
   170    76    74   ar
   171    86    89    1
   172    86    85    1
   173    89    90    1
   174   153   152    2
   175   152   158   am
   176    20    18   am
   177    18    19    2
   178    82    81    1
   179    82    83    1
   180    81    78    1
   181    73    71   ar
   182    90    92   ar
   183    90    91   ar
   184   158   159    1
   185    74    72   ar
   186   173   172    1
   187    65    63    1
   188   159   160    1
   189   170   172   ar
   190   170   168   ar
   191   172   171   ar
   192    80    79    2
   193    71    72   ar
   194    71    70    1
   195    78    79    1
   196    78    77    1
   197   168   167   ar
   198    64    63    1
   199    63    60    1
   200   171   169   ar
   201    70    67    1
   202   160   161    2
   203   167   169   ar
   204   167   166    1
   205   166   163    1
   206    60    61    1
   207    60    59    1
   208    62    61    2
   209    61    66   am
   210    66    67    1
   211    67    68    1
   212   163   162    1
   213   163   164    1
   214    68    69    2
   215   164   165    2
