@<TRIPOS>MOLECULE
tmp/1os1A00.pdb
 213 203 0 0 0
SMALL
GASTEIGER

@<TRIPOS>ATOM
      1  N         40.5950   -3.6840    9.8750 N.3   209  LYS209     -0.1231
      2  CA        39.3190   -3.6860   10.5860 C.3   209  LYS209      0.1693
      3  C         38.1730   -4.1580    9.6760 C.2   209  LYS209      0.2591
      4  O         37.4910   -5.1430    9.9740 O.2   209  LYS209     -0.2718
      5  CB        39.0330   -2.2730   11.0950 C.3   209  LYS209      0.0285
      6  CG        37.5950   -2.0080   11.5240 C.3   209  LYS209      0.0035
      7  CD        37.4420   -0.5910   12.0560 C.3   209  LYS209      0.0206
      8  CE        35.9830   -0.1950   12.2020 C.3   209  LYS209      0.1093
      9  NZ        35.1920   -1.1530   13.0070 N.3   209  LYS209     -0.1314
     10  N         37.9800   -3.4710    8.5550 N.am  210  LYS210     -0.1980
     11  CA        36.9200   -3.8170    7.6130 C.3   210  LYS210      0.1596
     12  C         37.1720   -5.0870    6.8120 C.2   210  LYS210      0.2287
     13  O         36.2300   -5.7110    6.3010 O.2   210  LYS210     -0.2864
     14  CB        36.6410   -2.6360    6.7000 C.3   210  LYS210      0.0298
     15  CG        36.0850   -1.4470    7.4450 C.3   210  LYS210      0.0038
     16  CD        34.7870   -1.8020    8.1280 C.3   210  LYS210      0.0206
     17  CE        34.1840   -0.5800    8.7710 C.3   210  LYS210      0.1093
     18  NZ        32.8480   -0.8840    9.3280 N.3   210  LYS210     -0.1314
     19  N         26.1970   -4.2040   10.3830 N.3   229  HIS229     -0.1241
     20  CA        26.9900   -2.9970   10.3870 C.3   229  HIS229      0.1621
     21  C         26.1590   -2.0260   11.2220 C.2   229  HIS229      0.2264
     22  O         25.4230   -1.1780   10.6930 O.2   229  HIS229     -0.2867
     23  CB        27.1450   -2.4950    8.9610 C.3   229  HIS229      0.0745
     24  CG        28.1250   -1.3810    8.8230 C.ar  229  HIS229      0.0817
     25  ND1       27.8910   -0.2930    8.0160 N.ar  229  HIS229     -0.2268
     26  CD2       29.3550   -1.1980    9.3580 C.ar  229  HIS229      0.1154
     27  CE1       28.9330    0.5140    8.0490 C.ar  229  HIS229      0.1986
     28  NE2       29.8430   -0.0170    8.8520 N.ar  229  HIS229     -0.2212
     29  N         25.8330    3.9460    7.6750 N.3   246  LEU246     -0.1231
     30  CA        27.0880    4.1070    6.9700 C.3   246  LEU246      0.1693
     31  C         28.0480    4.9770    7.7810 C.2   246  LEU246      0.2593
     32  O         27.7940    5.3290    8.9390 O.2   246  LEU246     -0.2718
     33  CB        26.8490    4.7420    5.5960 C.3   246  LEU246      0.0284
     34  CG        27.2960    3.9140    4.3940 C.3   246  LEU246      0.0019
     35  CD1       26.4700    2.6520    4.3060 C.3   246  LEU246      0.0001
     36  CD2       27.1620    4.7260    3.1230 C.3   246  LEU246      0.0001
     37  N         29.1600    5.3130    7.1500 N.am  247  SER247     -0.1938
     38  CA        30.1880    6.1190    7.7690 C.3   247  SER247      0.2055
     39  C         29.6250    7.5090    8.0710 C.2   247  SER247      0.2644
     40  O         28.9090    8.0880    7.2510 O.2   247  SER247     -0.2714
     41  CB        31.3900    6.1990    6.8180 C.3   247  SER247      0.2130
     42  OG        32.6160    6.3450    7.5130 O.3   247  SER247     -0.2179
     43  N         29.8940    7.9940    9.2820 N.am  248  GLY248     -0.1939
     44  CA        29.4410    9.3120    9.7070 C.3   248  GLY248      0.2014
     45  C         27.9590    9.6110    9.8930 C.2   248  GLY248      0.2640
     46  O         27.5960   10.7760   10.0250 O.2   248  GLY248     -0.2714
     47  N         27.1090    8.5910    9.9460 N.am  249  THR249     -0.1936
     48  CA        25.6850    8.8420   10.1110 C.3   249  THR249      0.2028
     49  C         25.1490    8.8590   11.5450 C.2   249  THR249      0.2643
     50  O         23.9660    9.0880   11.7610 O.2   249  THR249     -0.2714
     51  CB        24.8510    7.9090    9.2130 C.3   249  THR249      0.1808
     52  OG1       25.1340    6.5380    9.5210 O.3   249  THR249     -0.2208
     53  CG2       25.1930    8.1780    7.7510 C.3   249  THR249      0.0379
     54  N         26.0120    8.5950   12.5230 N.am  250  GLY250     -0.1939
     55  CA        25.5750    8.6330   13.9050 C.3   250  GLY250      0.2014
     56  C         25.6620    7.3670   14.7360 C.2   250  GLY250      0.2639
     57  O         25.3300    7.4010   15.9160 O.2   250  GLY250     -0.2714
     58  N         26.1450    6.2700   14.1650 N.am  251  LYS251     -0.1963
     59  CA        26.2360    5.0190   14.9080 C.3   251  LYS251      0.1728
     60  C         27.0300    5.1650   16.1930 C.2   251  LYS251      0.2617
     61  O         26.5940    4.7490   17.2620 O.2   251  LYS251     -0.2715
     62  CB        26.8740    3.9220   14.0640 C.3   251  LYS251      0.0311
     63  CG        26.0590    3.5150   12.8490 C.3   251  LYS251      0.0038
     64  CD        26.4580    2.1310   12.3680 C.3   251  LYS251      0.0206
     65  CE        27.9150    2.0620   11.9650 C.3   251  LYS251      0.1093
     66  NZ        28.2390    3.0870   10.9370 N.3   251  LYS251     -0.1314
     67  N         28.2000    5.7700   16.0730 N.am  252  THR252     -0.1937
     68  CA        29.0750    5.9600   17.2130 C.3   252  THR252      0.2028
     69  C         28.5480    6.9920   18.2070 C.2   252  THR252      0.2643
     70  O         28.3650    6.6830   19.3820 O.2   252  THR252     -0.2714
     71  CB        30.5110    6.2930   16.7430 C.3   252  THR252      0.1808
     72  OG1       31.0220    5.1800   15.9910 O.3   252  THR252     -0.2208
     73  CG2       31.4320    6.5500   17.9350 C.3   252  THR252      0.0379
     74  N         28.2230    8.1870   17.7240 N.am  253  THR253     -0.1936
     75  CA        27.7370    9.2470   18.5960 C.3   253  THR253      0.2028
     76  C         26.4250    8.9370   19.3160 C.2   253  THR253      0.2642
     77  O         26.2680    9.2610   20.4920 O.2   253  THR253     -0.2714
     78  CB        27.6010   10.6000   17.8430 C.3   253  THR253      0.1808
     79  OG1       26.5470   10.5220   16.8800 O.3   253  THR253     -0.2208
     80  CG2       28.8910   10.9410   17.1280 C.3   253  THR253      0.0379
     81  N         25.4830    8.3100   18.6170 N.am  254  LEU254     -0.1977
     82  CA        24.1940    7.9970   19.2150 C.3   254  LEU254      0.1596
     83  C         24.1510    6.7580   20.1110 C.2   254  LEU254      0.2287
     84  O         23.2460    6.6320   20.9220 O.2   254  LEU254     -0.2864
     85  CB        23.1070    7.9290   18.1400 C.3   254  LEU254      0.0297
     86  CG        22.8890    9.1980   17.3000 C.3   254  LEU254      0.0022
     87  CD1       21.8680    8.9000   16.2140 C.3   254  LEU254      0.0001
     88  CD2       22.4290   10.3830   18.1560 C.3   254  LEU254      0.0001
     89  N         30.2390   -0.2150   18.8490 N.3   265  ASP265     -0.1225
     90  CA        29.8600    0.9130   18.0080 C.3   265  ASP265      0.1805
     91  C         29.8660    0.6770   16.5000 C.2   265  ASP265      0.2597
     92  O         29.5490    1.5980   15.7460 O.2   265  ASP265     -0.2718
     93  CB        30.7580    2.1230   18.3200 C.3   265  ASP265      0.1424
     94  CG        32.1350    2.0210   17.6700 C.2   265  ASP265      0.3668
     95  OD1       32.6140    3.0400   17.1550 O.co2 265  ASP265     -0.2456
     96  OD2       32.7370    0.9280   17.6620 O.co2 265  ASP265     -0.2456
     97  N         30.1700   -0.5330   16.0410 N.am  266  ASP266     -0.1974
     98  CA        30.2590   -0.7090   14.5960 C.3   266  ASP266      0.1709
     99  C         29.8980   -2.0280   13.9100 C.2   266  ASP266      0.2293
    100  O         29.3530   -2.0180   12.8110 O.2   266  ASP266     -0.2864
    101  CB        31.6800   -0.3100   14.1910 C.3   266  ASP266      0.1436
    102  CG        31.7950    0.0180   12.7430 C.2   266  ASP266      0.3671
    103  OD1       31.0610    0.9170   12.2930 O.co2 266  ASP266     -0.2456
    104  OD2       32.6150   -0.6210   12.0610 O.co2 266  ASP266     -0.2456
    105  N         36.1510    3.1040   16.9350 N.3   283  TYR283     -0.1227
    106  CA        36.8920    3.8760   15.9450 C.3   283  TYR283      0.1736
    107  C         36.0410    5.1110   15.6490 C.2   283  TYR283      0.2595
    108  O         35.1840    5.1060   14.7510 O.2   283  TYR283     -0.2718
    109  CB        37.0780    2.9900   14.7110 C.3   283  TYR283      0.0548
    110  CG        38.1400    3.4050   13.7200 C.ar  283  TYR283     -0.0200
    111  CD1       39.3260    4.0110   14.1280 C.ar  283  TYR283     -0.0009
    112  CD2       37.9650    3.1510   12.3590 C.ar  283  TYR283     -0.0009
    113  CE1       40.3140    4.3480   13.1990 C.ar  283  TYR283      0.0417
    114  CE2       38.9390    3.4800   11.4310 C.ar  283  TYR283      0.0417
    115  CZ        40.1090    4.0770   11.8510 C.ar  283  TYR283      0.1957
    116  OH        41.0560    4.3910   10.9050 O.3   283  TYR283     -0.2866
    117  N         36.2360    6.1410   16.4620 N.am  284  ALA284     -0.1966
    118  CA        35.4780    7.3740   16.3690 C.3   284  ALA284      0.1728
    119  C         36.0210    8.3920   15.3820 C.2   284  ALA284      0.2616
    120  O         37.2250    8.4450   15.1260 O.2   284  ALA284     -0.2715
    121  CB        35.3650    8.0060   17.7470 C.3   284  ALA284      0.0334
    122  N         35.1170    9.2050   14.8370 N.am  285  LYS285     -0.1977
    123  CA        35.4880   10.2620   13.9000 C.3   285  LYS285      0.1596
    124  C         35.7550   11.4870   14.7530 C.2   285  LYS285      0.2287
    125  O         34.9970   11.7610   15.6880 O.2   285  LYS285     -0.2864
    126  CB        34.3450   10.5500   12.9200 C.3   285  LYS285      0.0298
    127  CG        34.0070    9.3680   12.0330 C.3   285  LYS285      0.0038
    128  CD        32.9980    9.7200   10.9550 C.3   285  LYS285      0.0206
    129  CE        33.6460   10.3990    9.7530 C.3   285  LYS285      0.1093
    130  NZ        33.8410   11.8590    9.9010 N.3   285  LYS285     -0.1314
    131  N         36.6570   14.9960   13.3700 N.3   287  ILE287     -0.1245
    132  CA        36.5490   16.3700   12.8770 C.3   287  ILE287      0.1561
    133  C         35.4690   17.0940   13.6580 C.2   287  ILE287      0.2260
    134  O         34.4180   16.5330   13.9460 O.2   287  ILE287     -0.2867
    135  CB        36.2230   16.5390   11.3470 C.3   287  ILE287      0.0252
    136  CG1       35.4580   15.3350   10.7900 C.3   287  ILE287      0.0019
    137  CG2       37.4820   16.9570   10.5670 C.3   287  ILE287      0.0019
    138  CD1       33.9990   15.2480   11.1900 C.3   287  ILE287      0.0001
    139  N         30.2410   15.7930   22.8120 N.3   294  GLU294     -0.1245
    140  CA        30.6160   14.3870   22.9240 C.3   294  GLU294      0.1567
    141  C         31.6490   14.1900   24.0340 C.2   294  GLU294      0.2260
    142  O         32.7990   13.8340   23.7720 O.2   294  GLU294     -0.2867
    143  CB        31.1950   13.8680   21.6010 C.3   294  GLU294      0.0388
    144  CG        30.2620   13.9290   20.3970 C.3   294  GLU294      0.1160
    145  CD        28.9790   13.1220   20.5700 C.2   294  GLU294      0.3649
    146  OE1       28.9410   12.1720   21.3900 O.co2 294  GLU294     -0.2457
    147  OE2       27.9960   13.4460   19.8670 O.co2 294  GLU294     -0.2457
    148  N         40.4300   10.2230   12.6700 N.3   330  ARG330     -0.1245
    149  CA        39.9220    9.1960   13.5690 C.3   330  ARG330      0.1563
    150  C         40.7600    9.0360   14.8150 C.2   330  ARG330      0.2260
    151  O         41.8360    9.6180   14.9360 O.2   330  ARG330     -0.2867
    152  CB        39.9470    7.8310   12.8750 C.3   330  ARG330      0.0307
    153  CG        39.0900    7.7000   11.6460 C.3   330  ARG330      0.0489
    154  CD        37.6600    7.4320   12.0190 C.3   330  ARG330      0.2205
    155  NE        36.8370    7.3790   10.8260 N.pl3 330  ARG330     -0.0865
    156  CZ        35.7760    6.5990   10.6870 C.cat 330  ARG330      0.5346
    157  NH1       35.4070    5.8020   11.6830 N.pl3 330  ARG330      0.1354
    158  NH2       35.0910    6.6180    9.5460 N.pl3 330  ARG330      0.1354
    159  N         29.3830   10.2370    3.7300 N.3   388  LEU388     -0.1245
    160  CA        29.9960   11.4130    4.3440 C.3   388  LEU388      0.1561
    161  C         31.3660   11.0800    4.9120 C.2   388  LEU388      0.2260
    162  O         32.0220   11.9380    5.5040 O.2   388  LEU388     -0.2867
    163  CB        29.0940   11.9690    5.4540 C.3   388  LEU388      0.0270
    164  CG        29.5270   13.2660    6.1340 C.3   388  LEU388      0.0019
    165  CD1       28.3050   14.1380    6.4220 C.3   388  LEU388      0.0001
    166  CD2       30.2800   12.9690    7.4220 C.3   388  LEU388      0.0001
    167  N         19.4360   11.5730   10.3800 N.3   438  THR438     -0.1218
    168  CA        20.4630   12.3150   11.1140 C.3   438  THR438      0.1862
    169  C         21.0740   13.3620   10.1820 C.2   438  THR438      0.2287
    170  O         22.0120   14.0770   10.5370 O.2   438  THR438     -0.2866
    171  CB        21.5710   11.3710   11.6240 C.3   438  THR438      0.1770
    172  OG1       22.1760   10.7000   10.5140 O.3   438  THR438     -0.2211
    173  CG2       20.9820   10.3270   12.5600 C.3   438  THR438      0.0375
    174  N         22.3060   20.3880    9.2440 N.3   446  ARG446     -0.1231
    175  CA        22.0240   19.0640    9.7740 C.3   446  ARG446      0.1694
    176  C         21.1520   19.1840   11.0070 C.2   446  ARG446      0.2592
    177  O         21.2200   20.1740   11.7380 O.2   446  ARG446     -0.2718
    178  CB        23.3040   18.3150   10.1610 C.3   446  ARG446      0.0321
    179  CG        23.9610   17.5650    9.0230 C.3   446  ARG446      0.0489
    180  CD        25.0600   16.6260    9.4990 C.3   446  ARG446      0.2205
    181  NE        24.5510   15.3510    9.9910 N.pl3 446  ARG446     -0.0865
    182  CZ        25.2980   14.2580   10.1260 C.cat 446  ARG446      0.5346
    183  NH1       26.5870   14.2830    9.8110 N.pl3 446  ARG446      0.1354
    184  NH2       24.7490   13.1230   10.5270 N.pl3 446  ARG446      0.1354
    185  N         20.3310   18.1690   11.2260 N.am  447  ILE447     -0.1966
    186  CA        19.4690   18.1270   12.3880 C.3   447  ILE447      0.1727
    187  C         20.4220   18.0900   13.5790 C.2   447  ILE447      0.2617
    188  O         21.4260   17.3810   13.5610 O.2   447  ILE447     -0.2715
    189  CB        18.5640   16.8810   12.3450 C.3   447  ILE447      0.0290
    190  CG1       17.6130   17.0040   11.1390 C.3   447  ILE447      0.0022
    191  CG2       17.8020   16.7380   13.6500 C.3   447  ILE447      0.0023
    192  CD1       16.8180   15.7650   10.7990 C.3   447  ILE447      0.0001
    193  N         20.1580   18.9370   14.5650 N.am  448  SER448     -0.1936
    194  CA        20.9920   19.0320   15.7590 C.3   448  SER448      0.2055
    195  C         21.1350   17.7100   16.5190 C.2   448  SER448      0.2642
    196  O         20.1800   16.9360   16.6190 O.2   448  SER448     -0.2714
    197  CB        20.4130   20.1010   16.6960 C.3   448  SER448      0.2130
    198  OG        21.1730   20.2280   17.8870 O.3   448  SER448     -0.2179
    199  N         22.3210   17.4760   17.0820 N.am  449  ILE449     -0.1977
    200  CA        22.5830   16.2640   17.8640 C.3   449  ILE449      0.1596
    201  C         21.5800   16.1490   19.0270 C.2   449  ILE449      0.2287
    202  O         21.1310   15.0520   19.3690 O.2   449  ILE449     -0.2864
    203  CB        24.0570   16.2350   18.3950 C.3   449  ILE449      0.0276
    204  CG1       25.0160   15.9330   17.2360 C.3   449  ILE449      0.0022
    205  CG2       24.2270   15.1870   19.4960 C.3   449  ILE449      0.0022
    206  CD1       26.5060   15.9860   17.5820 C.3   449  ILE449      0.0001
    207  N         18.2250   14.9150   17.7730 N.3   452  THR452     -0.1218
    208  CA        18.3850   13.5160   17.4180 C.3   452  THR452      0.1862
    209  C         18.4110   12.6450   18.6810 C.2   452  THR452      0.2287
    210  O         17.7480   11.6050   18.7360 O.2   452  THR452     -0.2866
    211  CB        19.6580   13.2830   16.5530 C.3   452  THR452      0.1770
    212  OG1       19.6430   14.1700   15.4250 O.3   452  THR452     -0.2211
    213  CG2       19.6940   11.8590   16.0300 C.3   452  THR452      0.0375
@<TRIPOS>BOND
     1    36    34    1
     2   159   160    1
     3    35    34    1
     4   160   161    1
     5   160   163    1
     6    34    33    1
     7   161   162    2
     8   163   164    1
     9    33    30    1
    10   164   165    1
    11   164   166    1
    12    13    12    2
    13    14    15    1
    14    14    11    1
    15    12    11    1
    16    41    42    1
    17    41    38    1
    18    30    29    1
    19    30    31    1
    20    37    38    1
    21    37    31   am
    22    40    39    2
    23    15    16    1
    24    11    10    1
    25    53    51    1
    26    38    39    1
    27    31    32    2
    28    25    27   ar
    29    25    24   ar
    30    27    28   ar
    31    39    43   am
    32    16    17    1
    33    10     3   am
    34    17    18    1
    35    24    23    1
    36    24    26   ar
    37    28    26   ar
    38    23    20    1
    39   179   180    1
    40   179   178    1
    41    51    52    1
    42    51    48    1
    43   174   175    1
    44    43    44    1
    45   180   181    1
    46   158   156    1
    47     3     4    2
    48     3     2    1
    49    44    45    1
    50   129   130    1
    51   129   128    1
    52   175   178    1
    53   175   176    1
    54   183   182    1
    55     1     2    1
    56    45    47   am
    57    45    46    2
    58    47    48    1
    59   181   182    2
    60    48    49    1
    61   182   184    1
    62   169   170    2
    63   169   168    1
    64   167   168    1
    65    19    20    1
    66    20    21    1
    67   172   171    1
    68   137   135    1
    69     2     5    1
    70   156   155    2
    71   156   157    1
    72    22    21    2
    73   136   138    1
    74   136   135    1
    75   192   190    1
    76   155   154    1
    77   116   115    1
    78    66    65    1
    79   128   127    1
    80   176   185   am
    81   176   177    2
    82     5     6    1
    83   168   171    1
    84   190   189    1
    85   185   186    1
    86   135   132    1
    87   114   115   ar
    88   114   112   ar
    89     6     7    1
    90    49    50    2
    91    49    54   am
    92   171   173    1
    93   153   154    1
    94   153   152    1
    95   115   113   ar
    96    65    64    1
    97   127   126    1
    98     7     8    1
    99   104   102   ar
   100     8     9    1
   101   103   102   ar
   102   189   186    1
   103   189   191    1
   104   112   110   ar
   105    64    63    1
   106   186   187    1
   107    54    55    1
   108   148   149    1
   109   102   101    1
   110   100    99    2
   111    63    62    1
   112   152   149    1
   113   132   131    1
   114   132   133    1
   115   126   123    1
   116   113   111   ar
   117   188   187    2
   118   149   150    1
   119   187   193   am
   120   133   134    2
   121   110   111   ar
   122   110   109    1
   123   123   124    1
   124   123   122    1
   125    55    56    1
   126    99    98    1
   127    62    59    1
   128    58    56   am
   129    58    59    1
   130   101    98    1
   131   193   194    1
   132    98    97    1
   133   109   106    1
   134    56    57    2
   135   108   107    2
   136   124   125    2
   137   150   151    2
   138   122   119   am
   139    59    60    1
   140   120   119    2
   141   119   118    1
   142   212   211    1
   143   107   106    1
   144   107   117   am
   145    92    91    2
   146   194   195    1
   147   194   197    1
   148   106   105    1
   149    72    71    1
   150   213   211    1
   151    97    91   am
   152    67    60   am
   153    67    68    1
   154    60    61    2
   155    87    86    1
   156   118   117    1
   157   118   121    1
   158    91    90    1
   159   195   196    2
   160   195   199   am
   161   211   208    1
   162   197   198    1
   163    71    68    1
   164    71    73    1
   165    79    78    1
   166   199   200    1
   167    80    78    1
   168    95    94   ar
   169    68    69    1
   170   204   206    1
   171   204   203    1
   172    86    85    1
   173    86    88    1
   174   208   207    1
   175   208   209    1
   176    96    94   ar
   177    94    93    1
   178    74    69   am
   179    74    75    1
   180    78    75    1
   181   200   203    1
   182   200   201    1
   183    90    93    1
   184    90    89    1
   185    85    82    1
   186    69    70    2
   187   203   205    1
   188    75    76    1
   189    81    82    1
   190    81    76   am
   191   209   210    2
   192   201   202    2
   193    82    83    1
   194    76    77    2
   195   147   145   ar
   196    83    84    2
   197   144   145    1
   198   144   143    1
   199   145   146   ar
   200   143   140    1
   201   139   140    1
   202   140   141    1
   203   142   141    2
