@<TRIPOS>MOLECULE
tmp/1os5A00.pdb
 139 133 0 0 0
SMALL
GASTEIGER

@<TRIPOS>ATOM
      1  N         38.7100   20.2380   57.2680 N.3   419  LEU419     -0.1245
      2  CA        38.5000   18.8140   57.0280 C.3   419  LEU419      0.1561
      3  C         37.2770   18.3340   57.7730 C.2   419  LEU419      0.2260
      4  O         36.4990   17.5610   57.2330 O.2   419  LEU419     -0.2867
      5  CB        39.7560   17.9880   57.4330 C.3   419  LEU419      0.0270
      6  CG        39.9940   17.7630   58.9450 C.3   419  LEU419      0.0019
      7  CD1       39.4080   16.3990   59.3830 C.3   419  LEU419      0.0001
      8  CD2       41.5060   17.8520   59.2500 C.3   419  LEU419      0.0001
      9  N         33.9230   19.3890   55.9590 N.3   422  ARG422     -0.1231
     10  CA        33.7770   18.6170   54.7200 C.3   422  ARG422      0.1694
     11  C         33.5130   17.1540   55.0000 C.2   422  ARG422      0.2591
     12  O         32.5490   16.5830   54.5020 O.2   422  ARG422     -0.2718
     13  CB        35.0520   18.7530   53.8700 C.3   422  ARG422      0.0321
     14  CG        35.3740   20.1850   53.4900 C.3   422  ARG422      0.0489
     15  CD        36.7500   20.2920   52.8460 C.3   422  ARG422      0.2205
     16  NE        36.7290   19.7270   51.4910 N.pl3 422  ARG422     -0.0865
     17  CZ        37.8580   19.3910   50.8700 C.cat 422  ARG422      0.5346
     18  NH1       39.0440   19.5350   51.4590 N.pl3 422  ARG422      0.1354
     19  NH2       37.7940   18.9740   49.6200 N.pl3 422  ARG422      0.1354
     20  N         34.3390   16.5380   55.8340 N.am  423  MET423     -0.1979
     21  CA        34.1760   15.1190   56.1100 C.3   423  MET423      0.1605
     22  C         32.8990   14.7970   56.8390 C.2   423  MET423      0.2287
     23  O         32.1960   13.8560   56.4730 O.2   423  MET423     -0.2864
     24  CB        35.3820   14.6130   56.9290 C.3   423  MET423      0.0413
     25  CG        35.3480   13.1090   57.1790 C.3   423  MET423      0.0598
     26  SD        36.7760   12.4860   58.1030 S.3   423  MET423     -0.1393
     27  CE        36.4840   13.1760   59.7530 C.3   423  MET423      0.0692
     28  N         39.2880   21.3520   47.4060 N.3   473  SER473     -0.1202
     29  CA        40.4570   20.4990   47.1050 C.3   473  SER473      0.2020
     30  C         41.5310   20.4420   48.1880 C.2   473  SER473      0.2619
     31  O         42.5820   19.8070   48.0050 O.2   473  SER473     -0.2717
     32  CB        41.0770   20.9940   45.7800 C.3   473  SER473      0.2103
     33  OG        40.1070   20.9720   44.7190 O.3   473  SER473     -0.2182
     34  N         41.3280   21.0820   49.3360 N.am  474  LEU474     -0.1965
     35  CA        42.3670   21.0250   50.3660 C.3   474  LEU474      0.1728
     36  C         42.6520   19.6040   50.8240 C.2   474  LEU474      0.2616
     37  O         41.7740   18.7340   50.8150 O.2   474  LEU474     -0.2715
     38  CB        41.9690   21.9050   51.5730 C.3   474  LEU474      0.0311
     39  CG        41.9510   23.4170   51.2580 C.3   474  LEU474      0.0022
     40  CD1       41.9610   24.2040   52.5800 C.3   474  LEU474      0.0001
     41  CD2       43.1420   23.8150   50.3620 C.3   474  LEU474      0.0001
     42  N         43.9160   19.3390   51.1040 N.am  475  HIS475     -0.1959
     43  CA        44.3700   18.0270   51.5950 C.3   475  HIS475      0.1787
     44  C         45.6880   18.2840   52.2990 C.2   475  HIS475      0.2621
     45  O         46.2040   19.4040   52.2500 O.2   475  HIS475     -0.2715
     46  CB        44.5690   17.0310   50.4280 C.3   475  HIS475      0.0785
     47  CG        45.5290   17.5510   49.4480 C.ar  475  HIS475      0.0821
     48  ND1       45.1900   18.4340   48.4700 N.ar  475  HIS475     -0.2267
     49  CD2       46.8860   17.2510   49.3330 C.ar  475  HIS475      0.1154
     50  CE1       46.3380   18.6790   47.7430 C.ar  475  HIS475      0.1986
     51  NE2       47.3720   17.9530   48.2810 N.ar  475  HIS475     -0.2212
     52  N         46.3270   17.2560   52.8470 N.am  476  SER476     -0.1936
     53  CA        47.5630   17.4840   53.6140 C.3   476  SER476      0.2055
     54  C         47.3070   18.5710   54.6610 C.2   476  SER476      0.2643
     55  O         47.8660   19.6730   54.5810 O.2   476  SER476     -0.2714
     56  CB        48.7250   17.8860   52.6770 C.3   476  SER476      0.2130
     57  OG        49.0050   16.8260   51.7530 O.3   476  SER476     -0.2179
     58  N         46.3540   18.3240   55.5570 N.am  477  TYR477     -0.1973
     59  CA        46.0770   19.2860   56.6330 C.3   477  TYR477      0.1639
     60  C         47.2130   19.2110   57.6400 C.2   477  TYR477      0.2290
     61  O         47.9950   18.2560   57.6330 O.2   477  TYR477     -0.2864
     62  CB        44.7330   18.9670   57.3200 C.3   477  TYR477      0.0560
     63  CG        43.6020   19.3330   56.4390 C.ar  477  TYR477     -0.0198
     64  CD1       43.0350   18.3810   55.5750 C.ar  477  TYR477     -0.0009
     65  CD2       43.0940   20.6350   56.4760 C.ar  477  TYR477     -0.0009
     66  CE1       41.9560   18.7440   54.7590 C.ar  477  TYR477      0.0417
     67  CE2       42.0190   21.0050   55.6650 C.ar  477  TYR477      0.0417
     68  CZ        41.4530   20.0550   54.8120 C.ar  477  TYR477      0.1957
     69  OH        40.3920   20.4240   54.0230 O.3   477  TYR477     -0.2866
     70  N         44.9180   17.8910   62.4300 N.3   482  ILE482     -0.1245
     71  CA        44.4610   16.4920   62.3950 C.3   482  ILE482      0.1561
     72  C         44.3940   15.9190   63.7930 C.2   482  ILE482      0.2260
     73  O         43.3910   15.3070   64.1660 O.2   482  ILE482     -0.2867
     74  CB        45.4210   15.6770   61.5080 C.3   482  ILE482      0.0252
     75  CG1       45.2150   16.0800   60.0400 C.3   482  ILE482      0.0019
     76  CG2       45.1980   14.1620   61.7110 C.3   482  ILE482      0.0019
     77  CD1       46.2510   15.5010   59.0710 C.3   482  ILE482      0.0001
     78  N         41.2630   17.2180   65.6150 N.3   485  VAL485     -0.1231
     79  CA        40.0260   16.5890   65.1260 C.3   485  VAL485      0.1692
     80  C         39.9140   15.1470   65.5970 C.2   485  VAL485      0.2591
     81  O         38.8940   14.7550   66.1670 O.2   485  VAL485     -0.2718
     82  CB        39.9860   16.6500   63.5740 C.3   485  VAL485      0.0266
     83  CG1       38.8040   15.8120   63.0340 C.3   485  VAL485      0.0020
     84  CG2       39.8770   18.1130   63.1100 C.3   485  VAL485      0.0020
     85  N         40.9610   14.3290   65.4280 N.am  486  ALA486     -0.1980
     86  CA        40.8960   12.9280   65.8670 C.3   486  ALA486      0.1597
     87  C         40.5880   12.8740   67.3490 C.2   486  ALA486      0.2287
     88  O         39.7900   12.0510   67.8050 O.2   486  ALA486     -0.2864
     89  CB        42.2300   12.2400   65.5730 C.3   486  ALA486      0.0319
     90  N         36.9580   13.4690   67.7790 N.3   489  LEU489     -0.1245
     91  CA        36.1530   12.3320   67.3060 C.3   489  LEU489      0.1561
     92  C         36.1140   11.2190   68.3360 C.2   489  LEU489      0.2260
     93  O         35.0590   10.6400   68.6100 O.2   489  LEU489     -0.2867
     94  CB        36.7460   11.8140   65.9830 C.3   489  LEU489      0.0270
     95  CG        36.1530   12.4680   64.7010 C.3   489  LEU489      0.0019
     96  CD1       35.8180   13.9610   64.9100 C.3   489  LEU489      0.0001
     97  CD2       37.1500   12.2750   63.5440 C.3   489  LEU489      0.0001
     98  N         37.4190    8.6490   59.5160 N.3   497  LEU497     -0.1245
     99  CA        37.5220    8.9970   58.0910 C.3   497  LEU497      0.1561
    100  C         37.0190    7.8710   57.1920 C.2   497  LEU497      0.2260
    101  O         36.1940    8.0970   56.3070 O.2   497  LEU497     -0.2867
    102  CB        39.0020    9.3210   57.7790 C.3   497  LEU497      0.0270
    103  CG        39.3230    9.5970   56.2890 C.3   497  LEU497      0.0019
    104  CD1       38.4210   10.7080   55.7220 C.3   497  LEU497      0.0001
    105  CD2       40.8100    9.9680   56.1480 C.3   497  LEU497      0.0001
    106  N         34.1520    8.7730   54.4870 N.3   501  ARG501     -0.1245
    107  CA        34.4430    8.6970   53.0430 C.3   501  ARG501      0.1563
    108  C         33.4550    7.7330   52.4060 C.2   501  ARG501      0.2260
    109  O         32.8270    8.0360   51.3890 O.2   501  ARG501     -0.2867
    110  CB        35.8790    8.1810   52.8620 C.3   501  ARG501      0.0307
    111  CG        36.2490    7.9180   51.4150 C.3   501  ARG501      0.0489
    112  CD        37.4060    6.9390   51.3260 C.3   501  ARG501      0.2205
    113  NE        38.6280    7.5440   51.8970 N.pl3 501  ARG501     -0.0865
    114  CZ        39.2960    6.9720   52.9270 C.cat 501  ARG501      0.5346
    115  NH1       38.8440    5.8290   53.4780 N.pl3 501  ARG501      0.1354
    116  NH2       40.4230    7.5450   53.3870 N.pl3 501  ARG501      0.1354
    117  N         36.4790   15.0930   47.1820 N.3   528  TRP528     -0.1241
    118  CA        37.5050   14.4880   48.0350 C.3   528  TRP528      0.1605
    119  C         37.3290   12.9880   48.2680 C.2   528  TRP528      0.2264
    120  O         38.3080   12.2790   48.4950 O.2   528  TRP528     -0.2867
    121  CB        37.5440   15.2260   49.4020 C.3   528  TRP528      0.0550
    122  CG        36.2670   15.1320   50.1580 C.ar  528  TRP528      0.0003
    123  CD1       35.2010   16.0430   50.0950 C.ar  528  TRP528      0.0946
    124  CD2       35.8630   14.1610   51.1110 C.ar  528  TRP528      0.0152
    125  NE1       34.1960   15.6950   50.9380 N.ar  528  TRP528     -0.2442
    126  CE2       34.5680   14.5450   51.5750 C.ar  528  TRP528      0.0810
    127  CE3       36.4740   12.9990   51.6180 C.ar  528  TRP528      0.0012
    128  CZ2       33.9220   13.7530   52.5340 C.ar  528  TRP528      0.0191
    129  CZ3       35.8070   12.2270   52.5760 C.ar  528  TRP528      0.0001
    130  CH2       34.5430   12.6020   53.0280 C.ar  528  TRP528      0.0015
    131  N         39.0120   11.8730   40.6570 N.3   533  LYS533     -0.1245
    132  CA        38.3310   13.1680   40.8420 C.3   533  LYS533      0.1561
    133  C         37.8220   13.7680   39.5560 C.2   533  LYS533      0.2260
    134  O         38.3610   13.5080   38.4810 O.2   533  LYS533     -0.2867
    135  CB        39.2940   14.1740   41.5110 C.3   533  LYS533      0.0271
    136  CG        40.3320   13.5390   42.4000 C.3   533  LYS533      0.0035
    137  CD        39.8890   13.5410   43.8450 C.3   533  LYS533      0.0206
    138  CE        40.9020   12.8370   44.7320 C.3   533  LYS533      0.1093
    139  NZ        40.4890   12.9750   46.1370 N.3   533  LYS533     -0.1314
@<TRIPOS>BOND
     1   134   133    2
     2   133   132    1
     3   131   132    1
     4   132   135    1
     5   135   136    1
     6   136   137    1
     7   137   138    1
     8    33    32    1
     9   138   139    1
    10    32    29    1
    11    29    28    1
    12    29    30    1
    13   117   118    1
    14    50    51   ar
    15    50    48   ar
    16    31    30    2
    17   118   119    1
    18   118   121    1
    19    30    34   am
    20   119   120    2
    21    51    49   ar
    22    48    47   ar
    23    49    47   ar
    24    34    35    1
    25   121   122    1
    26    47    46    1
    27    19    17    1
    28   123   122   ar
    29   123   125   ar
    30   122   124   ar
    31    41    39    1
    32    35    36    1
    33    35    38    1
    34    46    43    1
    35    37    36    2
    36    36    42   am
    37    17    18    1
    38    17    16    2
    39   125   126   ar
    40    42    43    1
    41   124   126   ar
    42   124   127   ar
    43    39    38    1
    44    39    40    1
    45   112   111    1
    46   112   113    1
    47   109   108    2
    48   111   110    1
    49    16    15    1
    50   126   128   ar
    51    43    44    1
    52   127   129   ar
    53    57    56    1
    54   113   114    2
    55    45    44    2
    56    44    52   am
    57   108   107    1
    58   128   130   ar
    59   129   130   ar
    60    56    53    1
    61    15    14    1
    62    52    53    1
    63   110   107    1
    64   114   116    1
    65   114   115    1
    66   107   106    1
    67    14    13    1
    68    53    54    1
    69    13    10    1
    70    69    68    1
    71    12    11    2
    72    55    54    2
    73    54    58   am
    74    10    11    1
    75    10     9    1
    76    66    68   ar
    77    66    64   ar
    78    68    67   ar
    79    11    20   am
    80    58    59    1
    81    64    63   ar
    82    67    65   ar
    83   104   103    1
    84    20    21    1
    85    21    22    1
    86    21    24    1
    87   105   103    1
    88   103   102    1
    89   101   100    2
    90    63    65   ar
    91    63    62    1
    92    23    22    2
    93    59    62    1
    94    59    60    1
    95    24    25    1
    96     2     1    1
    97     2     5    1
    98     2     3    1
    99    25    26    1
   100   100    99    1
   101     4     3    2
   102     5     6    1
   103    61    60    2
   104   102    99    1
   105    99    98    1
   106    26    27    1
   107     6     8    1
   108     6     7    1
   109    77    75    1
   110    75    74    1
   111    74    76    1
   112    74    71    1
   113    71    70    1
   114    71    72    1
   115    83    82    1
   116    84    82    1
   117    97    95    1
   118    82    79    1
   119    72    73    2
   120    95    96    1
   121    95    94    1
   122    79    80    1
   123    79    78    1
   124    85    80   am
   125    85    86    1
   126    89    86    1
   127    80    81    2
   128    86    87    1
   129    94    91    1
   130    91    90    1
   131    91    92    1
   132    87    88    2
   133    92    93    2
