@<TRIPOS>MOLECULE
tmp/1os7A00.pdb
 128 125 0 0 0
SMALL
GASTEIGER

@<TRIPOS>ATOM
      1  N         29.2500   90.1120   27.7380 N.3    69  HIS69      -0.1241
      2  CA        28.2350   89.1850   28.2220 C.3    69  HIS69       0.1621
      3  C         27.4760   89.6970   29.4560 C.2    69  HIS69       0.2264
      4  O         28.0810   90.1270   30.4390 O.2    69  HIS69      -0.2867
      5  CB        28.8830   87.8330   28.5240 C.3    69  HIS69       0.0745
      6  CG        27.9340   86.6820   28.4270 C.ar   69  HIS69       0.0817
      7  ND1       26.8560   86.5320   29.2740 N.ar   69  HIS69      -0.2268
      8  CD2       27.8760   85.6480   27.5560 C.ar   69  HIS69       0.1154
      9  CE1       26.1740   85.4560   28.9270 C.ar   69  HIS69       0.1986
     10  NE2       26.7720   84.9020   27.8880 N.ar   69  HIS69      -0.2212
     11  N         27.7170   86.1690   32.4480 N.3    72  TYR72      -0.1241
     12  CA        28.9930   85.5090   32.7410 C.3    72  TYR72       0.1605
     13  C         30.0310   86.4560   33.3530 C.2    72  TYR72       0.2264
     14  O         30.2110   87.5860   32.8920 O.2    72  TYR72      -0.2867
     15  CB        29.5960   84.8780   31.4740 C.3    72  TYR72       0.0534
     16  CG        28.9490   83.5870   30.9970 C.ar   72  TYR72      -0.0201
     17  CD1       28.5190   82.6110   31.9030 C.ar   72  TYR72      -0.0009
     18  CD2       28.8290   83.3160   29.6310 C.ar   72  TYR72      -0.0009
     19  CE1       27.9880   81.3950   31.4570 C.ar   72  TYR72       0.0417
     20  CE2       28.3040   82.1070   29.1720 C.ar   72  TYR72       0.0417
     21  CZ        27.8850   81.1500   30.0870 C.ar   72  TYR72       0.1957
     22  OH        27.3690   79.9570   29.6260 O.3    72  TYR72      -0.2866
     23  N         27.9490   74.8880   31.9820 N.3    93  ASP93      -0.1225
     24  CA        26.6290   75.1000   31.3980 C.3    93  ASP93       0.1805
     25  C         26.6770   75.2630   29.8810 C.2    93  ASP93       0.2597
     26  O         25.7300   75.7690   29.2820 O.2    93  ASP93      -0.2718
     27  CB        25.9550   76.3260   32.0270 C.3    93  ASP93       0.1424
     28  CG        26.4900   77.6320   31.4780 C.2    93  ASP93       0.3668
     29  OD1       27.7070   77.7100   31.2190 O.co2  93  ASP93      -0.2456
     30  OD2       25.7000   78.5820   31.3130 O.co2  93  ASP93      -0.2456
     31  N         27.7770   74.8360   29.2650 N.am   94  ASN94      -0.1974
     32  CA        27.9300   74.9290   27.8130 C.3    94  ASN94       0.1688
     33  C         28.0030   73.5310   27.1880 C.2    94  ASN94       0.2292
     34  O         28.6240   73.3210   26.1430 O.2    94  ASN94      -0.2864
     35  CB        29.1800   75.7420   27.4620 C.3    94  ASN94       0.1181
     36  CG        28.9980   77.2320   27.7130 C.2    94  ASN94       0.2629
     37  OD1       28.4220   77.9480   26.8970 O.2    94  ASN94      -0.2716
     38  ND2       29.4860   77.7030   28.8540 N.am   94  ASN94      -0.0877
     39  N         25.8530   71.8120   25.5770 N.3    96  ASN96      -0.1240
     40  CA        24.6780   71.8310   24.7210 C.3    96  ASN96       0.1653
     41  C         25.1260   72.5140   23.4390 C.2    96  ASN96       0.2266
     42  O         26.0470   73.3370   23.4580 O.2    96  ASN96      -0.2867
     43  CB        23.5290   72.6230   25.3640 C.3    96  ASN96       0.1155
     44  CG        23.8370   74.0990   25.5030 C.2    96  ASN96       0.2627
     45  OD1       23.8400   74.8470   24.5300 O.2    96  ASN96      -0.2716
     46  ND2       24.1070   74.5230   26.7240 N.am   96  ASN96      -0.0877
     47  N         25.1760   75.1080   20.6440 N.3    98  HIS98      -0.1226
     48  CA        24.7500   76.4890   20.5260 C.3    98  HIS98       0.1752
     49  C         25.6550   77.3600   19.6810 C.2    98  HIS98       0.2597
     50  O         26.7240   76.9610   19.2330 O.2    98  HIS98      -0.2718
     51  CB        24.6290   77.1220   21.9180 C.3    98  HIS98       0.0759
     52  CG        25.8870   77.0400   22.7260 C.ar   98  HIS98       0.0818
     53  ND1       26.2320   75.9230   23.4590 N.ar   98  HIS98      -0.2268
     54  CD2       26.9050   77.9210   22.8820 C.ar   98  HIS98       0.1154
     55  CE1       27.4080   76.1170   24.0290 C.ar   98  HIS98       0.1986
     56  NE2       27.8380   77.3210   23.6950 N.ar   98  HIS98      -0.2212
     57  N         25.1910   78.5760   19.4690 N.am   99  THR99      -0.1939
     58  CA        25.9290   79.5610   18.7170 C.3    99  THR99       0.2028
     59  C         25.9020   80.7610   19.6420 C.2    99  THR99       0.2642
     60  O         24.8360   81.2720   19.9660 O.2    99  THR99      -0.2714
     61  CB        25.2350   79.8790   17.3950 C.3    99  THR99       0.1808
     62  OG1       25.1880   78.6890   16.6010 O.3    99  THR99      -0.2208
     63  CG2       25.9930   80.9630   16.6440 C.3    99  THR99       0.0379
     64  N         27.0820   81.1890   20.0740 N.am  100  ASP100     -0.1957
     65  CA        27.2130   82.2970   20.9990 C.3   100  ASP100      0.1840
     66  C         26.3500   83.5130   20.7370 C.2   100  ASP100      0.2621
     67  O         26.3200   84.0620   19.6420 O.2   100  ASP100     -0.2715
     68  CB        28.6710   82.7280   21.1000 C.3   100  ASP100      0.1450
     69  CG        29.5810   81.5980   21.5330 C.2   100  ASP100      0.3671
     70  OD1       29.2240   80.8620   22.4780 O.co2 100  ASP100     -0.2456
     71  OD2       30.6650   81.4490   20.9300 O.co2 100  ASP100     -0.2456
     72  N         25.6380   83.9110   21.7810 N.am  101  VAL101     -0.1977
     73  CA        24.7760   85.0840   21.7740 C.3   101  VAL101      0.1596
     74  C         24.0060   85.3840   20.4950 C.2   101  VAL101      0.2287
     75  O         24.1660   86.4540   19.9130 O.2   101  VAL101     -0.2864
     76  CB        25.5920   86.3440   22.1700 C.3   101  VAL101      0.0276
     77  CG1       24.6700   87.5450   22.3190 C.3   101  VAL101      0.0022
     78  CG2       26.3340   86.0830   23.4770 C.3   101  VAL101      0.0022
     79  N         20.9790   85.6690   20.5950 N.3   103  PHE103     -0.1241
     80  CA        19.8030   86.3490   21.1230 C.3   103  PHE103      0.1605
     81  C         19.8620   87.8730   21.0020 C.2   103  PHE103      0.2264
     82  O         19.0010   88.5660   21.5250 O.2   103  PHE103     -0.2867
     83  CB        19.5350   85.9230   22.5810 C.3   103  PHE103      0.0534
     84  CG        20.6970   86.1280   23.5100 C.ar  103  PHE103     -0.0203
     85  CD1       20.9650   87.3860   24.0510 C.ar  103  PHE103     -0.0042
     86  CD2       21.5230   85.0610   23.8510 C.ar  103  PHE103     -0.0042
     87  CE1       22.0390   87.5760   24.9160 C.ar  103  PHE103     -0.0003
     88  CE2       22.5970   85.2430   24.7140 C.ar  103  PHE103     -0.0003
     89  CZ        22.8540   86.5080   25.2470 C.ar  103  PHE103     -0.0000
     90  N         18.5020   79.3830   27.3000 N.3   157  SER157     -0.1202
     91  CA        19.7670   78.8820   27.8430 C.3   157  SER157      0.2020
     92  C         20.0480   79.4340   29.2360 C.2   157  SER157      0.2618
     93  O         20.9650   78.9690   29.9180 O.2   157  SER157     -0.2717
     94  CB        20.9440   79.2280   26.9280 C.3   157  SER157      0.2103
     95  OG        21.2210   78.1740   26.0250 O.3   157  SER157     -0.2182
     96  N         19.2650   80.4310   29.6480 N.am  158  PHE158     -0.1975
     97  CA        19.4180   81.0420   30.9710 C.3   158  PHE158      0.1639
     98  C         18.0600   81.2100   31.6290 C.2   158  PHE158      0.2290
     99  O         17.4460   82.2690   31.5370 O.2   158  PHE158     -0.2864
    100  CB        20.0950   82.4120   30.8690 C.3   158  PHE158      0.0560
    101  CG        21.4350   82.3740   30.1990 C.ar  158  PHE158     -0.0200
    102  CD1       21.5360   82.4560   28.8230 C.ar  158  PHE158     -0.0042
    103  CD2       22.5920   82.2140   30.9470 C.ar  158  PHE158     -0.0042
    104  CE1       22.7700   82.3770   28.1980 C.ar  158  PHE158     -0.0003
    105  CE2       23.8310   82.1330   30.3340 C.ar  158  PHE158     -0.0003
    106  CZ        23.9220   82.2140   28.9540 C.ar  158  PHE158     -0.0000
    107  N         19.4670   78.4710   21.9440 N.3   205  PHE205     -0.1241
    108  CA        18.5690   79.6270   21.9650 C.3   205  PHE205      0.1605
    109  C         17.3210   79.5890   21.0960 C.2   205  PHE205      0.2264
    110  O         16.3340   80.2440   21.4300 O.2   205  PHE205     -0.2867
    111  CB        19.3400   80.8940   21.5960 C.3   205  PHE205      0.0534
    112  CG        20.4610   81.2060   22.5250 C.ar  205  PHE205     -0.0203
    113  CD1       20.2050   81.5650   23.8400 C.ar  205  PHE205     -0.0042
    114  CD2       21.7830   81.0990   22.0980 C.ar  205  PHE205     -0.0042
    115  CE1       21.2460   81.8090   24.7200 C.ar  205  PHE205     -0.0003
    116  CE2       22.8360   81.3400   22.9760 C.ar  205  PHE205     -0.0003
    117  CZ        22.5670   81.6950   24.2900 C.ar  205  PHE205     -0.0000
    118  N         37.7140   83.8960   27.2590 N.3   269  ARG269     -0.1245
    119  CA        37.1420   84.0590   25.9300 C.3   269  ARG269      0.1563
    120  C         36.9130   85.5030   25.4950 C.2   269  ARG269      0.2260
    121  O         36.4610   86.3340   26.2770 O.2   269  ARG269     -0.2867
    122  CB        35.8150   83.2980   25.8630 C.3   269  ARG269      0.0307
    123  CG        34.9110   83.7080   24.7150 C.3   269  ARG269      0.0489
    124  CD        33.5460   83.0640   24.8410 C.3   269  ARG269      0.2205
    125  NE        32.5030   83.9340   24.3120 N.pl3 269  ARG269     -0.0865
    126  CZ        31.2040   83.7120   24.4600 C.cat 269  ARG269      0.5346
    127  NH1       30.7860   82.6420   25.1200 N.pl3 269  ARG269      0.1354
    128  NH2       30.3260   84.5710   23.9640 N.pl3 269  ARG269      0.1354
@<TRIPOS>BOND
     1    62    61    1
     2    63    61    1
     3    61    58    1
     4    58    57    1
     5    58    59    1
     6    50    49    2
     7    57    49   am
     8    67    66    2
     9    59    60    2
    10    59    64   am
    11    49    48    1
    12    75    74    2
    13    64    65    1
    14    74    73    1
    15    48    47    1
    16    48    51    1
    17    79    80    1
    18    66    65    1
    19    66    72   am
    20    71    69   ar
    21    65    68    1
    22    81    80    1
    23    81    82    2
    24   109   110    2
    25   109   108    1
    26    68    69    1
    27    80    83    1
    28    69    70   ar
    29   111   108    1
    30   111   112    1
    31    73    72    1
    32    73    76    1
    33    51    52    1
    34   107   108    1
    35   114   112   ar
    36   114   116   ar
    37    76    77    1
    38    76    78    1
    39   112   113   ar
    40    83    84    1
    41    52    54   ar
    42    52    53   ar
    43    54    56   ar
    44   116   117   ar
    45    41    42    2
    46    41    40    1
    47    53    55   ar
    48    84    86   ar
    49    84    85   ar
    50    56    55   ar
    51   113   115   ar
    52    86    88   ar
    53   128   126    1
    54    85    87   ar
    55   117   115   ar
    56   125   126    2
    57   125   124    1
    58   126   127    1
    59    45    44    2
    60    88    89   ar
    61   123   124    1
    62   123   122    1
    63    40    43    1
    64    40    39    1
    65    87    89   ar
    66    43    44    1
    67   120   119    1
    68   120   121    2
    69    44    46   am
    70   122   119    1
    71   119   118    1
    72    95    94    1
    73    34    33    2
    74    37    36    2
    75    94    91    1
    76    33    32    1
    77    90    91    1
    78    35    36    1
    79    35    32    1
    80     8    10   ar
    81     8     6   ar
    82    36    38   am
    83     1     2    1
    84    32    31    1
    85    91    92    1
    86    10     9   ar
    87   104   102   ar
    88   104   106   ar
    89     2     5    1
    90     2     3    1
    91     6     5    1
    92     6     7   ar
    93   102   101   ar
    94     9     7   ar
    95   106   105   ar
    96    20    18   ar
    97    20    21   ar
    98    92    96   am
    99    92    93    2
   100    31    25   am
   101    26    25    2
   102     3     4    2
   103    22    21    1
   104    18    16   ar
   105    96    97    1
   106    25    24    1
   107    21    19   ar
   108   101   100    1
   109   101   103   ar
   110   105   103   ar
   111   100    97    1
   112    97    98    1
   113    16    15    1
   114    16    17   ar
   115    29    28   ar
   116    30    28   ar
   117    24    23    1
   118    24    27    1
   119    19    17   ar
   120    15    12    1
   121    28    27    1
   122    99    98    2
   123    11    12    1
   124    12    13    1
   125    14    13    2
