@<TRIPOS>MOLECULE
tmp/1os7A01.pdb
 148 142 0 0 0
SMALL
GASTEIGER

@<TRIPOS>ATOM
      1  N         27.7170   86.1690   32.4480 N.3    72  TYR72      -0.1241
      2  CA        28.9930   85.5090   32.7410 C.3    72  TYR72       0.1605
      3  C         30.0310   86.4560   33.3530 C.2    72  TYR72       0.2264
      4  O         30.2110   87.5860   32.8920 O.2    72  TYR72      -0.2867
      5  CB        29.5960   84.8780   31.4740 C.3    72  TYR72       0.0534
      6  CG        28.9490   83.5870   30.9970 C.ar   72  TYR72      -0.0201
      7  CD1       28.5190   82.6110   31.9030 C.ar   72  TYR72      -0.0009
      8  CD2       28.8290   83.3160   29.6310 C.ar   72  TYR72      -0.0009
      9  CE1       27.9880   81.3950   31.4570 C.ar   72  TYR72       0.0417
     10  CE2       28.3040   82.1070   29.1720 C.ar   72  TYR72       0.0417
     11  CZ        27.8850   81.1500   30.0870 C.ar   72  TYR72       0.1957
     12  OH        27.3690   79.9570   29.6260 O.3    72  TYR72      -0.2866
     13  N         35.4040   81.5870   32.2890 N.3    84  LEU84      -0.1245
     14  CA        34.5770   80.4270   32.5750 C.3    84  LEU84       0.1561
     15  C         35.2800   79.4800   33.5430 C.2    84  LEU84       0.2260
     16  O         35.9050   78.4980   33.1400 O.2    84  LEU84      -0.2867
     17  CB        34.1990   79.7090   31.2750 C.3    84  LEU84       0.0270
     18  CG        33.0420   80.3900   30.5270 C.3    84  LEU84       0.0019
     19  CD1       32.9120   79.8350   29.1170 C.3    84  LEU84       0.0001
     20  CD2       31.7490   80.1840   31.3100 C.3    84  LEU84       0.0001
     21  N         27.7770   74.8360   29.2650 N.3    94  ASN94      -0.1240
     22  CA        27.9300   74.9290   27.8130 C.3    94  ASN94       0.1653
     23  C         28.0030   73.5310   27.1880 C.2    94  ASN94       0.2266
     24  O         28.6240   73.3210   26.1430 O.2    94  ASN94      -0.2867
     25  CB        29.1800   75.7420   27.4620 C.3    94  ASN94       0.1155
     26  CG        28.9980   77.2320   27.7130 C.2    94  ASN94       0.2627
     27  OD1       28.4220   77.9480   26.8970 O.2    94  ASN94      -0.2716
     28  ND2       29.4860   77.7030   28.8540 N.am   94  ASN94      -0.0877
     29  N         25.1760   75.1080   20.6440 N.3    98  HIS98      -0.1241
     30  CA        24.7500   76.4890   20.5260 C.3    98  HIS98       0.1621
     31  C         25.6550   77.3600   19.6810 C.2    98  HIS98       0.2264
     32  O         26.7240   76.9610   19.2330 O.2    98  HIS98      -0.2867
     33  CB        24.6290   77.1220   21.9180 C.3    98  HIS98       0.0745
     34  CG        25.8870   77.0400   22.7260 C.ar   98  HIS98       0.0817
     35  ND1       26.2320   75.9230   23.4590 N.ar   98  HIS98      -0.2268
     36  CD2       26.9050   77.9210   22.8820 C.ar   98  HIS98       0.1154
     37  CE1       27.4080   76.1170   24.0290 C.ar   98  HIS98       0.1986
     38  NE2       27.8380   77.3210   23.6950 N.ar   98  HIS98      -0.2212
     39  N         27.0820   81.1890   20.0740 N.3   100  ASP100     -0.1239
     40  CA        27.2130   82.2970   20.9990 C.3   100  ASP100      0.1674
     41  C         26.3500   83.5130   20.7370 C.2   100  ASP100      0.2266
     42  O         26.3200   84.0620   19.6420 O.2   100  ASP100     -0.2867
     43  CB        28.6710   82.7280   21.1000 C.3   100  ASP100      0.1410
     44  CG        29.5810   81.5980   21.5330 C.2   100  ASP100      0.3668
     45  OD1       29.2240   80.8620   22.4780 O.co2 100  ASP100     -0.2456
     46  OD2       30.6650   81.4490   20.9300 O.co2 100  ASP100     -0.2456
     47  N         38.9070   81.3680   22.2500 N.3   113  LEU113     -0.1245
     48  CA        38.9840   80.6690   23.5250 C.3   113  LEU113      0.1561
     49  C         40.4480   80.4600   23.9010 C.2   113  LEU113      0.2260
     50  O         41.3160   80.3610   23.0320 O.2   113  LEU113     -0.2867
     51  CB        38.2560   79.3190   23.4350 C.3   113  LEU113      0.0270
     52  CG        36.8970   79.1970   24.1400 C.3   113  LEU113      0.0019
     53  CD1       37.0840   79.0310   25.6370 C.3   113  LEU113      0.0001
     54  CD2       36.0620   80.4310   23.8470 C.3   113  LEU113      0.0001
     55  N         36.0610   69.9120   23.6660 N.3   125  THR125     -0.1218
     56  CA        35.1140   70.8320   23.0610 C.3   125  THR125      0.1862
     57  C         34.9620   70.5500   21.5700 C.2   125  THR125      0.2287
     58  O         35.9570   70.3560   20.8580 O.2   125  THR125     -0.2866
     59  CB        35.5580   72.2890   23.2790 C.3   125  THR125      0.1770
     60  OG1       35.6330   72.5500   24.6880 O.3   125  THR125     -0.2211
     61  CG2       34.5730   73.2580   22.6410 C.3   125  THR125      0.0375
     62  N         32.8470   71.4870   17.6820 N.3   127  TRP127     -0.1241
     63  CA        32.3250   72.5470   16.8090 C.3   127  TRP127      0.1605
     64  C         31.6430   71.8080   15.6550 C.2   127  TRP127      0.2264
     65  O         32.1000   70.7340   15.2580 O.2   127  TRP127     -0.2867
     66  CB        33.4530   73.4160   16.2420 C.3   127  TRP127      0.0550
     67  CG        33.9050   74.5310   17.1550 C.ar  127  TRP127      0.0003
     68  CD1       33.4480   75.8220   17.1670 C.ar  127  TRP127      0.0946
     69  CD2       34.8470   74.4290   18.2350 C.ar  127  TRP127      0.0152
     70  NE1       34.0410   76.5270   18.1890 N.ar  127  TRP127     -0.2442
     71  CE2       34.9040   75.6990   18.8600 C.ar  127  TRP127      0.0810
     72  CE3       35.6430   73.3890   18.7370 C.ar  127  TRP127      0.0012
     73  CZ2       35.7290   75.9570   19.9630 C.ar  127  TRP127      0.0191
     74  CZ3       36.4670   73.6470   19.8420 C.ar  127  TRP127      0.0001
     75  CH2       36.5000   74.9230   20.4380 C.ar  127  TRP127      0.0015
     76  N         41.6830   69.6650   24.7790 N.3   239  TRP239     -0.1241
     77  CA        42.4050   70.8410   25.2610 C.3   239  TRP239      0.1605
     78  C         43.7330   70.5930   25.9660 C.2   239  TRP239      0.2264
     79  O         43.9550   69.5450   26.5660 O.2   239  TRP239     -0.2867
     80  CB        41.5110   71.6750   26.1890 C.3   239  TRP239      0.0550
     81  CG        40.3460   72.3290   25.5120 C.ar  239  TRP239      0.0003
     82  CD1       39.0430   71.9320   25.5630 C.ar  239  TRP239      0.0946
     83  CD2       40.3770   73.5010   24.6860 C.ar  239  TRP239      0.0152
     84  NE1       38.2580   72.7830   24.8220 N.ar  239  TRP239     -0.2442
     85  CE2       39.0500   73.7550   24.2710 C.ar  239  TRP239      0.0810
     86  CE3       41.3960   74.3620   24.2550 C.ar  239  TRP239      0.0012
     87  CZ2       38.7140   74.8340   23.4460 C.ar  239  TRP239      0.0191
     88  CZ3       41.0620   75.4350   23.4340 C.ar  239  TRP239      0.0001
     89  CH2       39.7300   75.6600   23.0390 C.ar  239  TRP239      0.0015
     90  N         37.0400   80.7930   16.0780 N.3   247  TRP247     -0.1241
     91  CA        36.0390   80.2100   15.1930 C.3   247  TRP247      0.1605
     92  C         35.0490   81.2400   14.6690 C.2   247  TRP247      0.2264
     93  O         34.8510   82.2860   15.2760 O.2   247  TRP247     -0.2867
     94  CB        35.2940   79.0820   15.9240 C.3   247  TRP247      0.0550
     95  CG        34.3080   79.5440   16.9750 C.ar  247  TRP247      0.0003
     96  CD1       33.0350   79.9910   16.7620 C.ar  247  TRP247      0.0946
     97  CD2       34.5190   79.6040   18.3950 C.ar  247  TRP247      0.0152
     98  NE1       32.4390   80.3220   17.9550 N.ar  247  TRP247     -0.2442
     99  CE2       33.3250   80.0960   18.9750 C.ar  247  TRP247      0.0810
    100  CE3       35.5990   79.2920   19.2330 C.ar  247  TRP247      0.0012
    101  CZ2       33.1790   80.2820   20.3600 C.ar  247  TRP247      0.0191
    102  CZ3       35.4550   79.4780   20.6080 C.ar  247  TRP247      0.0001
    103  CH2       34.2500   79.9680   21.1560 C.ar  247  TRP247      0.0015
    104  N         28.9870   74.9680   18.7890 N.3   254  HIS254     -0.1241
    105  CA        29.9540   74.1900   19.5490 C.3   254  HIS254      0.1621
    106  C         29.3170   73.6020   20.7860 C.2   254  HIS254      0.2264
    107  O         28.2030   73.9610   21.1550 O.2   254  HIS254     -0.2867
    108  CB        31.1810   75.0270   19.9370 C.3   254  HIS254      0.0745
    109  CG        30.8580   76.4310   20.3430 C.ar  254  HIS254      0.0817
    110  ND1       30.5380   77.4110   19.4300 N.ar  254  HIS254     -0.2268
    111  CD2       30.8030   77.0160   21.5600 C.ar  254  HIS254      0.1154
    112  CE1       30.3010   78.5420   20.0680 C.ar  254  HIS254      0.1986
    113  NE2       30.4550   78.3300   21.3620 N.ar  254  HIS254     -0.2212
    114  N         30.6450   72.0430   24.7690 N.3   256  ALA256     -0.1245
    115  CA        31.7450   71.8330   25.7040 C.3   256  ALA256      0.1562
    116  C         31.3790   70.7940   26.7540 C.2   256  ALA256      0.2260
    117  O         30.5560   71.0370   27.6330 O.2   256  ALA256     -0.2867
    118  CB        32.1070   73.1440   26.3650 C.3   256  ALA256      0.0290
    119  N         38.0910   73.7950   36.0340 N.3   265  ARG265     -0.1245
    120  CA        38.4580   74.1610   34.6760 C.3   265  ARG265      0.1563
    121  C         38.2610   75.6570   34.5290 C.2   265  ARG265      0.2260
    122  O         37.2360   76.1860   34.9490 O.2   265  ARG265     -0.2867
    123  CB        37.5830   73.3990   33.6750 C.3   265  ARG265      0.0307
    124  CG        37.9710   73.5530   32.2020 C.3   265  ARG265      0.0489
    125  CD        37.2030   72.5220   31.3670 C.3   265  ARG265      0.2205
    126  NE        37.4220   72.6540   29.9330 N.pl3 265  ARG265     -0.0865
    127  CZ        36.9320   73.6410   29.1940 C.cat 265  ARG265      0.5346
    128  NH1       36.1880   74.5850   29.7570 N.pl3 265  ARG265      0.1354
    129  NH2       37.1960   73.6900   27.8950 N.pl3 265  ARG265      0.1354
    130  N         38.5320   78.8030   31.6510 N.3   267  MET267     -0.1245
    131  CA        38.6740   79.2280   30.2630 C.3   267  MET267      0.1570
    132  C         38.4350   80.7240   30.1260 C.2   267  MET267      0.2261
    133  O         37.6010   81.2970   30.8290 O.2   267  MET267     -0.2867
    134  CB        37.6680   78.4910   29.3680 C.3   267  MET267      0.0387
    135  CG        37.8310   76.9770   29.2970 C.3   267  MET267      0.0595
    136  SD        39.3380   76.4420   28.4510 S.3   267  MET267     -0.1393
    137  CE        38.8230   76.4830   26.7230 C.3   267  MET267      0.0692
    138  N         37.7140   83.8960   27.2590 N.3   269  ARG269     -0.1245
    139  CA        37.1420   84.0590   25.9300 C.3   269  ARG269      0.1563
    140  C         36.9130   85.5030   25.4950 C.2   269  ARG269      0.2260
    141  O         36.4610   86.3340   26.2770 O.2   269  ARG269     -0.2867
    142  CB        35.8150   83.2980   25.8630 C.3   269  ARG269      0.0307
    143  CG        34.9110   83.7080   24.7150 C.3   269  ARG269      0.0489
    144  CD        33.5460   83.0640   24.8410 C.3   269  ARG269      0.2205
    145  NE        32.5030   83.9340   24.3120 N.pl3 269  ARG269     -0.0865
    146  CZ        31.2040   83.7120   24.4600 C.cat 269  ARG269      0.5346
    147  NH1       30.7860   82.6420   25.1200 N.pl3 269  ARG269      0.1354
    148  NH2       30.3260   84.5710   23.9640 N.pl3 269  ARG269      0.1354
@<TRIPOS>BOND
     1    92    91    1
     2    92    93    2
     3    91    94    1
     4    91    90    1
     5    65    64    2
     6    64    63    1
     7    94    95    1
     8    66    63    1
     9    66    67    1
    10    96    95   ar
    11    96    98   ar
    12    63    62    1
    13    95    97   ar
    14    67    68   ar
    15    67    69   ar
    16    68    70   ar
    17    98    99   ar
    18    70    71   ar
    19    69    72   ar
    20    69    71   ar
    21    97    99   ar
    22    97   100   ar
    23    72    74   ar
    24   104   105    1
    25    71    73   ar
    26    99   101   ar
    27    32    31    2
    28   100   102   ar
    29   110   112   ar
    30   110   109   ar
    31   105   108    1
    32   105   106    1
    33    42    41    2
    34    31    30    1
    35    74    75   ar
    36   108   109    1
    37    73    75   ar
    38   112   113   ar
    39    39    40    1
    40   109   111   ar
    41   101   103   ar
    42    30    29    1
    43    30    33    1
    44   102   103   ar
    45    41    40    1
    46   106   107    2
    47    58    57    2
    48    46    44   ar
    49    40    43    1
    50    43    44    1
    51   113   111   ar
    52    44    45   ar
    53    57    56    1
    54    33    34    1
    55    47    48    1
    56    61    59    1
    57    34    36   ar
    58    34    35   ar
    59    36    38   ar
    60    50    49    2
    61    89    88   ar
    62    89    87   ar
    63    56    59    1
    64    56    55    1
    65    59    60    1
    66    88    86   ar
    67    51    48    1
    68    51    52    1
    69    87    85   ar
    70    35    37   ar
    71    48    49    1
    72    38    37   ar
    73    54    52    1
    74   148   146    1
    75    52    53    1
    76    86    83   ar
    77    85    83   ar
    78    85    84   ar
    79   145   146    2
    80   145   144    1
    81   146   147    1
    82    83    81   ar
    83   143   144    1
    84   143   142    1
    85   114   115    1
    86    76    77    1
    87    84    82   ar
    88    77    78    1
    89    77    80    1
    90   140   139    1
    91   140   141    2
    92    81    82   ar
    93    81    80    1
    94   115   118    1
    95   115   116    1
    96   142   139    1
    97   139   138    1
    98    78    79    2
    99    24    23    2
   100   137   136    1
   101   116   117    2
   102    27    26    2
   103    23    22    1
   104    25    26    1
   105    25    22    1
   106    26    28   am
   107    22    21    1
   108   129   127    1
   109   136   135    1
   110    19    18    1
   111    10     8   ar
   112    10    11   ar
   113   127   128    1
   114   127   126    2
   115   135   134    1
   116   134   131    1
   117    12    11    1
   118     8     6   ar
   119   126   125    1
   120    11     9   ar
   121   132   131    1
   122   132   133    2
   123   131   130    1
   124    18    17    1
   125    18    20    1
   126     6     5    1
   127     6     7   ar
   128    17    14    1
   129   125   124    1
   130     9     7   ar
   131     5     2    1
   132   124   123    1
   133    13    14    1
   134     1     2    1
   135    14    15    1
   136     2     3    1
   137     4     3    2
   138    16    15    2
   139   123   120    1
   140   121   120    1
   141   121   122    2
   142   120   119    1
