@<TRIPOS>MOLECULE
tmp/1oseA00.pdb
 227 223 0 0 0
SMALL
GASTEIGER

@<TRIPOS>ATOM
      1  N         24.3700   33.5590    1.0060 N.3    57  TRP57      -0.1227
      2  CA        24.7820   33.9120    2.3630 C.3    57  TRP57       0.1737
      3  C         25.7680   35.0860    2.3450 C.2    57  TRP57       0.2595
      4  O         25.7790   35.9130    3.2670 O.2    57  TRP57      -0.2718
      5  CB        25.4110   32.7070    3.0850 C.3    57  TRP57       0.0564
      6  CG        26.6760   32.1860    2.4350 C.ar   57  TRP57       0.0003
      7  CD1       26.7650   31.2040    1.4900 C.ar   57  TRP57       0.0946
      8  CD2       28.0180   32.6540    2.6540 C.ar   57  TRP57       0.0152
      9  NE1       28.0700   31.0390    1.1030 N.ar   57  TRP57      -0.2442
     10  CE2       28.8620   31.9150    1.7970 C.ar   57  TRP57       0.0810
     11  CE3       28.5870   33.6280    3.4850 C.ar   57  TRP57       0.0012
     12  CZ2       30.2450   32.1190    1.7440 C.ar   57  TRP57       0.0191
     13  CZ3       29.9610   33.8310    3.4310 C.ar   57  TRP57       0.0001
     14  CH2       30.7740   33.0770    2.5650 C.ar   57  TRP57       0.0015
     15  N         26.5840   35.1640    1.2910 N.am   58  TRP58      -0.1976
     16  CA        27.5820   36.2200    1.1800 C.3    58  TRP58       0.1640
     17  C         27.1210   37.6350    0.8650 C.2    58  TRP58       0.2290
     18  O         27.9150   38.5680    0.9670 O.2    58  TRP58      -0.2864
     19  CB        28.7570   35.8160    0.2740 C.3    58  TRP58       0.0576
     20  CG        28.4190   35.1720   -1.0340 C.ar   58  TRP58       0.0006
     21  CD1       28.5710   33.8510   -1.3510 C.ar   58  TRP58       0.0946
     22  CD2       27.9790   35.8230   -2.2340 C.ar   58  TRP58       0.0152
     23  NE1       28.2690   33.6430   -2.6720 N.ar   58  TRP58      -0.2442
     24  CE2       27.9000   34.8340   -3.2400 C.ar   58  TRP58       0.0810
     25  CE3       27.6500   37.1450   -2.5600 C.ar   58  TRP58       0.0012
     26  CZ2       27.5070   35.1260   -4.5510 C.ar   58  TRP58       0.0191
     27  CZ3       27.2590   37.4380   -3.8630 C.ar   58  TRP58       0.0001
     28  CH2       27.1910   36.4310   -4.8430 C.ar   58  TRP58       0.0015
     29  N         27.9040   40.4110    3.3220 N.3    61  TYR61      -0.1227
     30  CA        29.2630   40.9250    3.4400 C.3    61  TYR61       0.1736
     31  C         29.4940   42.0360    2.4300 C.2    61  TYR61       0.2595
     32  O         30.6330   42.3840    2.1070 O.2    61  TYR61      -0.2718
     33  CB        30.2910   39.7890    3.3170 C.3    61  TYR61       0.0548
     34  CG        30.2520   38.8780    4.5290 C.ar   61  TYR61      -0.0200
     35  CD1       30.9820   39.1840    5.6700 C.ar   61  TYR61      -0.0009
     36  CD2       29.3900   37.7850    4.5790 C.ar   61  TYR61      -0.0009
     37  CE1       30.8490   38.4370    6.8300 C.ar   61  TYR61       0.0417
     38  CE2       29.2490   37.0360    5.7430 C.ar   61  TYR61       0.0417
     39  CZ        29.9770   37.3710    6.8620 C.ar   61  TYR61       0.1957
     40  OH        29.8140   36.6680    8.0310 O.3    61  TYR61      -0.2866
     41  N         28.3880   42.5970    1.9460 N.am   62  GLN62      -0.1979
     42  CA        28.4040   43.7110    1.0020 C.3    62  GLN62       0.1601
     43  C         27.4770   44.7990    1.5600 C.2    62  GLN62       0.2287
     44  O         26.3060   44.8870    1.1840 O.2    62  GLN62      -0.2864
     45  CB        27.9230   43.2630   -0.3740 C.3    62  GLN62       0.0394
     46  CG        28.7920   42.2090   -1.0150 C.3    62  GLN62       0.0908
     47  CD        28.3700   41.9290   -2.4340 C.2    62  GLN62       0.2608
     48  OE1       28.0200   42.8480   -3.1690 O.2    62  GLN62      -0.2717
     49  NE2       28.3930   40.6660   -2.8300 N.am   62  GLN62      -0.0878
     50  N         35.0500   47.4310    3.6660 N.3   100  HIS100     -0.1241
     51  CA        34.4790   47.7490    2.3720 C.3   100  HIS100      0.1621
     52  C         32.9710   47.9040    2.4000 C.2   100  HIS100      0.2264
     53  O         32.3210   47.6660    3.4240 O.2   100  HIS100     -0.2867
     54  CB        34.8160   46.5900    1.4330 C.3   100  HIS100      0.0745
     55  CG        34.4650   45.2480    2.0030 C.ar  100  HIS100      0.0817
     56  ND1       33.1750   44.7690    2.0330 N.ar  100  HIS100     -0.2268
     57  CD2       35.2230   44.3190    2.6360 C.ar  100  HIS100      0.1154
     58  CE1       33.1500   43.6090    2.6650 C.ar  100  HIS100      0.1986
     59  NE2       34.3800   43.3150    3.0410 N.ar  100  HIS100     -0.2212
     60  N         29.7460   45.3540   -3.8150 N.3   103  GLY103     -0.1210
     61  CA        30.5100   45.1250   -5.0300 C.3   103  GLY103      0.1956
     62  C         30.4590   46.3200   -5.9600 C.2   103  GLY103      0.2613
     63  O         29.3860   46.8580   -6.2170 O.2   103  GLY103     -0.2717
     64  N         31.6120   46.7210   -6.4820 N.am  104  SER104     -0.1938
     65  CA        31.6950   47.8680   -7.3810 C.3   104  SER104      0.2055
     66  C         30.8680   47.6860   -8.6470 C.2   104  SER104      0.2643
     67  O         30.4780   48.6660   -9.2930 O.2   104  SER104     -0.2714
     68  CB        33.1510   48.1450   -7.7560 C.3   104  SER104      0.2130
     69  OG        33.7510   47.0120   -8.3560 O.3   104  SER104     -0.2179
     70  N         30.6080   46.4290   -8.9970 N.am  105  GLY105     -0.1954
     71  CA        29.8330   46.1270  -10.1820 C.3   105  GLY105      0.1869
     72  C         28.3330   46.0910   -9.9580 C.2   105  GLY105      0.2309
     73  O         27.5710   45.9700  -10.9170 O.2   105  GLY105     -0.2863
     74  N         49.1610   38.5180   -3.3790 N.3   150  TYR150     -0.1241
     75  CA        49.0740   38.5280   -1.9270 C.3   150  TYR150      0.1605
     76  C         50.4670   38.6690   -1.3030 C.2   150  TYR150      0.2264
     77  O         50.6270   38.6240   -0.0810 O.2   150  TYR150     -0.2867
     78  CB        48.3570   37.2750   -1.4220 C.3   150  TYR150      0.0534
     79  CG        46.8620   37.4580   -1.2670 C.ar  150  TYR150     -0.0201
     80  CD1       45.9890   37.2510   -2.3370 C.ar  150  TYR150     -0.0009
     81  CD2       46.3190   37.8530   -0.0460 C.ar  150  TYR150     -0.0009
     82  CE1       44.6070   37.4380   -2.1890 C.ar  150  TYR150      0.0417
     83  CE2       44.9510   38.0400    0.1120 C.ar  150  TYR150      0.0417
     84  CZ        44.1010   37.8340   -0.9570 C.ar  150  TYR150      0.1957
     85  OH        42.7530   38.0410   -0.7790 O.3   150  TYR150     -0.2866
     86  N         40.8460   46.3290   -4.1350 N.3   160  GLN160     -0.1231
     87  CA        39.5770   45.6390   -3.9640 C.3   160  GLN160      0.1698
     88  C         39.6200   44.1230   -3.7650 C.2   160  GLN160      0.2592
     89  O         40.1550   43.3860   -4.6050 O.2   160  GLN160     -0.2718
     90  CB        38.6530   45.9580   -5.1390 C.3   160  GLN160      0.0381
     91  CG        38.3100   47.4270   -5.3040 C.3   160  GLN160      0.0905
     92  CD        37.4350   47.6890   -6.5240 C.2   160  GLN160      0.2608
     93  OE1       36.9000   48.7780   -6.6870 O.2   160  GLN160     -0.2717
     94  NE2       37.2960   46.6930   -7.3880 N.am  160  GLN160     -0.0878
     95  N         39.0440   43.6790   -2.6480 N.am  161  LEU161     -0.1966
     96  CA        38.9250   42.2620   -2.3070 C.3   161  LEU161      0.1728
     97  C         37.7040   41.8130   -3.1160 C.2   161  LEU161      0.2616
     98  O         36.6040   42.3190   -2.8920 O.2   161  LEU161     -0.2715
     99  CB        38.6050   42.1060   -0.8160 C.3   161  LEU161      0.0311
    100  CG        38.9230   40.8280   -0.0300 C.3   161  LEU161      0.0022
    101  CD1       37.8380   40.6310    1.0130 C.3   161  LEU161      0.0001
    102  CD2       39.0320   39.6100   -0.9170 C.3   161  LEU161      0.0001
    103  N         37.9050   40.9040   -4.0700 N.am  162  VAL162     -0.1963
    104  CA        36.8380   40.3960   -4.9390 C.3   162  VAL162      0.1727
    105  C         35.8350   41.4490   -5.4350 C.2   162  VAL162      0.2617
    106  O         34.6240   41.2410   -5.3930 O.2   162  VAL162     -0.2715
    107  CB        36.0950   39.1590   -4.3340 C.3   162  VAL162      0.0290
    108  CG1       37.0710   38.0240   -4.1330 C.3   162  VAL162      0.0023
    109  CG2       35.4070   39.4970   -3.0250 C.3   162  VAL162      0.0023
    110  N         36.3580   42.5720   -5.9260 N.am  163  GLY163     -0.1940
    111  CA        35.5190   43.6340   -6.4540 C.3   163  GLY163      0.2014
    112  C         34.7490   44.4790   -5.4650 C.2   163  GLY163      0.2638
    113  O         33.9390   45.3070   -5.8650 O.2   163  GLY163     -0.2714
    114  N         34.9570   44.2590   -4.1760 N.am  164  LEU164     -0.1977
    115  CA        34.2700   45.0430   -3.1540 C.3   164  LEU164      0.1596
    116  C         34.9300   46.4270   -3.0160 C.2   164  LEU164      0.2287
    117  O         36.1620   46.5270   -2.9390 O.2   164  LEU164     -0.2864
    118  CB        34.3000   44.3030   -1.8100 C.3   164  LEU164      0.0297
    119  CG        33.1810   43.3320   -1.3920 C.3   164  LEU164      0.0022
    120  CD1       32.1030   43.1890   -2.4440 C.3   164  LEU164      0.0001
    121  CD2       33.7860   41.9970   -1.0320 C.3   164  LEU164      0.0001
    122  N         33.8730   41.0860   15.7840 N.3   194  ARG194     -0.1245
    123  CA        34.7180   40.2550   14.9660 C.3   194  ARG194      0.1563
    124  C         35.0170   41.2180   13.8470 C.2   194  ARG194      0.2260
    125  O         34.0870   41.6710   13.1670 O.2   194  ARG194     -0.2867
    126  CB        33.9640   39.0760   14.3760 C.3   194  ARG194      0.0307
    127  CG        34.9030   38.1610   13.6310 C.3   194  ARG194      0.0489
    128  CD        34.1680   37.2040   12.7700 C.3   194  ARG194      0.2205
    129  NE        33.8260   37.8460   11.5220 N.pl3 194  ARG194     -0.0865
    130  CZ        34.1170   37.3340   10.3390 C.cat 194  ARG194      0.5346
    131  NH1       34.7440   36.1720   10.2770 N.pl3 194  ARG194      0.1354
    132  NH2       33.7750   37.9810    9.2370 N.pl3 194  ARG194      0.1354
    133  N         35.8400   41.7860   10.4630 N.3   196  ASP196     -0.1225
    134  CA        35.8600   41.0720    9.1990 C.3   196  ASP196      0.1805
    135  C         36.9240   41.5930    8.2400 C.2   196  ASP196      0.2597
    136  O         37.0760   42.8030    8.0640 O.2   196  ASP196     -0.2718
    137  CB        34.4770   41.1680    8.5510 C.3   196  ASP196      0.1424
    138  CG        34.4410   40.5830    7.1580 C.2   196  ASP196      0.3668
    139  OD1       34.4380   39.3470    7.0270 O.co2 196  ASP196     -0.2456
    140  OD2       34.4120   41.3620    6.1890 O.co2 196  ASP196     -0.2456
    141  N         37.6360   40.6640    7.6050 N.am  197  ALA197     -0.1979
    142  CA        38.6800   40.9730    6.6260 C.3   197  ALA197      0.1597
    143  C         39.7340   41.9470    7.1320 C.2   197  ALA197      0.2287
    144  O         40.1180   42.8780    6.4120 O.2   197  ALA197     -0.2864
    145  CB        38.0470   41.5030    5.3320 C.3   197  ALA197      0.0319
    146  N         42.8590   41.4720    7.5530 N.3   199  LYS199     -0.1231
    147  CA        44.0540   41.3300    6.7440 C.3   199  LYS199      0.1693
    148  C         44.0640   42.3710    5.6140 C.2   199  LYS199      0.2592
    149  O         45.1150   42.7020    5.0700 O.2   199  LYS199     -0.2718
    150  CB        44.0520   39.9140    6.1670 C.3   199  LYS199      0.0285
    151  CG        45.1920   39.5370    5.2500 C.3   199  LYS199      0.0035
    152  CD        45.0170   38.0780    4.9020 C.3   199  LYS199      0.0206
    153  CE        46.0350   37.5820    3.9220 C.3   199  LYS199      0.1093
    154  NZ        45.9180   36.1060    3.8350 N.3   199  LYS199     -0.1314
    155  N         42.8880   42.8790    5.2590 N.am  200  HIS200     -0.1976
    156  CA        42.7740   43.8520    4.1840 C.3   200  HIS200      0.1656
    157  C         42.7150   45.2970    4.6640 C.2   200  HIS200      0.2291
    158  O         42.2850   46.2040    3.9240 O.2   200  HIS200     -0.2864
    159  CB        41.5760   43.4930    3.3090 C.3   200  HIS200      0.0771
    160  CG        41.6770   42.1240    2.7170 C.ar  200  HIS200      0.0820
    161  ND1       42.3370   41.8750    1.5360 N.ar  200  HIS200     -0.2267
    162  CD2       41.2690   40.9210    3.1820 C.ar  200  HIS200      0.1154
    163  CE1       42.3370   40.5750    1.2980 C.ar  200  HIS200      0.1986
    164  NE2       41.6960   39.9760    2.2830 N.ar  200  HIS200     -0.2212
    165  N         39.6820   38.8620   11.9340 N.3   232  GLU232     -0.1245
    166  CA        39.7960   37.7600   11.0010 C.3   232  GLU232      0.1567
    167  C         41.0130   37.9800   10.1250 C.2   232  GLU232      0.2260
    168  O         40.9880   38.8180    9.2200 O.2   232  GLU232     -0.2867
    169  CB        38.5700   37.6280   10.1050 C.3   232  GLU232      0.0388
    170  CG        38.6650   36.3900    9.2160 C.3   232  GLU232      0.1160
    171  CD        38.2310   36.6200    7.7810 C.2   232  GLU232      0.3649
    172  OE1       37.9810   37.7770    7.3900 O.co2 232  GLU232     -0.2457
    173  OE2       38.1150   35.6260    7.0390 O.co2 232  GLU232     -0.2457
    174  N         43.5530   35.6030    7.9740 N.3   234  ILE234     -0.1245
    175  CA        43.9150   34.2810    7.4830 C.3   234  ILE234      0.1561
    176  C         45.4190   34.2400    7.2120 C.2   234  ILE234      0.2260
    177  O         45.8980   34.8510    6.2620 O.2   234  ILE234     -0.2867
    178  CB        43.1430   33.9310    6.1900 C.3   234  ILE234      0.0252
    179  CG1       41.6410   33.8420    6.4820 C.3   234  ILE234      0.0019
    180  CG2       43.6580   32.6180    5.5970 C.3   234  ILE234      0.0019
    181  CD1       40.7900   33.6530    5.2490 C.3   234  ILE234      0.0001
    182  N         53.4300   33.8150    4.1080 N.3   239  GLU239     -0.1245
    183  CA        52.7930   34.8530    3.3080 C.3   239  GLU239      0.1567
    184  C         53.2830   36.2080    3.8020 C.2   239  GLU239      0.2260
    185  O         53.7860   36.3140    4.9210 O.2   239  GLU239     -0.2867
    186  CB        51.2710   34.7540    3.3740 C.3   239  GLU239      0.0388
    187  CG        50.6110   35.2880    2.1110 C.3   239  GLU239      0.1160
    188  CD        49.1480   34.9150    1.9980 C.2   239  GLU239      0.3649
    189  OE1       48.3020   35.6670    2.5230 O.co2 239  GLU239     -0.2457
    190  OE2       48.8430   33.8760    1.3690 O.co2 239  GLU239     -0.2457
    191  N         32.1430   29.8060    9.1560 N.3   298  HIS298     -0.1226
    192  CA        31.1900   29.9220    8.0450 C.3   298  HIS298      0.1752
    193  C         31.7870   29.8480    6.6420 C.2   298  HIS298      0.2596
    194  O         31.1210   29.4050    5.7100 O.2   298  HIS298     -0.2718
    195  CB        30.3200   31.1850    8.1820 C.3   298  HIS298      0.0759
    196  CG        31.0320   32.4640    7.8630 C.ar  298  HIS298      0.0818
    197  ND1       31.8030   33.1420    8.7840 N.ar  298  HIS298     -0.2268
    198  CD2       31.0810   33.1950    6.7230 C.ar  298  HIS298      0.1154
    199  CE1       32.2930   34.2340    8.2260 C.ar  298  HIS298      0.1986
    200  NE2       31.8700   34.2900    6.9760 N.ar  298  HIS298     -0.2212
    201  N         33.0350   30.2830    6.4970 N.am  299  ASP299     -0.1974
    202  CA        33.7110   30.2860    5.2100 C.3   299  ASP299      0.1709
    203  C         34.2630   28.9440    4.7680 C.2   299  ASP299      0.2293
    204  O         33.9110   28.4420    3.6910 O.2   299  ASP299     -0.2864
    205  CB        34.8800   31.2720    5.2250 C.3   299  ASP299      0.1436
    206  CG        34.4950   32.6590    4.7730 C.2   299  ASP299      0.3671
    207  OD1       33.4370   32.8300    4.1330 O.co2 299  ASP299     -0.2456
    208  OD2       35.2830   33.5860    5.0450 O.co2 299  ASP299     -0.2456
    209  N         35.0440   28.2330    0.9660 N.3   304  HIS304     -0.1226
    210  CA        35.5330   29.6120    0.9220 C.3   304  HIS304      0.1752
    211  C         36.6460   29.8150    1.9400 C.2   304  HIS304      0.2597
    212  O         36.9040   28.9320    2.7600 O.2   304  HIS304     -0.2718
    213  CB        34.3930   30.5930    1.1960 C.3   304  HIS304      0.0759
    214  CG        33.3810   30.6650    0.0980 C.ar  304  HIS304      0.0818
    215  ND1       33.1700   31.8070   -0.6440 N.ar  304  HIS304     -0.2268
    216  CD2       32.5320   29.7340   -0.3980 C.ar  304  HIS304      0.1154
    217  CE1       32.2370   31.5760   -1.5510 C.ar  304  HIS304      0.1986
    218  NE2       31.8340   30.3260   -1.4210 N.ar  304  HIS304     -0.2212
    219  N         37.3060   30.9670    1.8910 N.am  305  GLY305     -0.1942
    220  CA        38.3790   31.2460    2.8330 C.3   305  GLY305      0.2014
    221  C         39.5610   30.2960    2.7130 C.2   305  GLY305      0.2638
    222  O         39.9940   29.9860    1.6000 O.2   305  GLY305     -0.2714
    223  N         40.0660   29.8160    3.8510 N.am  306  ALA306     -0.1977
    224  CA        41.2160   28.9090    3.8750 C.3   306  ALA306      0.1597
    225  C         41.1080   27.7000    4.8110 C.2   306  ALA306      0.2287
    226  O         40.5430   27.7720    5.9110 O.2   306  ALA306     -0.2864
    227  CB        42.4810   29.6890    4.1890 C.3   306  ALA306      0.0319
@<TRIPOS>BOND
     1    73    72    2
     2    71    72    1
     3    71    70    1
     4    67    66    2
     5    70    66   am
     6    66    65    1
     7    69    68    1
     8    68    65    1
     9    94    92   am
    10    65    64    1
    11    93    92    2
    12    92    91    1
    13    64    62   am
    14   111   110    1
    15   111   112    1
    16    63    62    2
    17    62    61    1
    18   110   105   am
    19   113   112    2
    20   112   114   am
    21   105   106    2
    22   105   104    1
    23    91    90    1
    24    90    87    1
    25    61    60    1
    26   104   107    1
    27   104   103    1
    28    28    26   ar
    29    28    27   ar
    30    89    88    2
    31    26    24   ar
    32   107   108    1
    33   107   109    1
    34   114   115    1
    35    86    87    1
    36   103    97   am
    37    87    88    1
    38    27    25   ar
    39    88    95   am
    40    74    75    1
    41    24    23   ar
    42    24    22   ar
    43    48    47    2
    44   115   116    1
    45   115   118    1
    46    97    98    2
    47    97    96    1
    48   116   117    2
    49    49    47   am
    50    23    21   ar
    51    95    96    1
    52    25    22   ar
    53   120   119    1
    54    47    46    1
    55    80    82   ar
    56    80    79   ar
    57    96    99    1
    58    22    20   ar
    59    82    84   ar
    60    75    78    1
    61    75    76    1
    62   118   119    1
    63   217   218   ar
    64   217   215   ar
    65    78    79    1
    66   218   216   ar
    67   119   121    1
    68    21    20   ar
    69    76    77    2
    70    79    81   ar
    71    20    19    1
    72    46    45    1
    73    84    85    1
    74    84    83   ar
    75   102   100    1
    76    99   100    1
    77   215   214   ar
    78   216   214   ar
    79    45    42    1
    80    81    83   ar
    81   100   101    1
    82   214   213    1
    83    19    16    1
    84    17    18    2
    85    17    16    1
    86   210   209    1
    87   210   213    1
    88   210   211    1
    89    42    43    1
    90    42    41    1
    91     1     2    1
    92     9     7   ar
    93     9    10   ar
    94    16    15    1
    95    44    43    2
    96    15     3   am
    97   163   161   ar
    98   163   164   ar
    99   190   188   ar
   100    54    55    1
   101    54    51    1
   102     7     6   ar
   103   161   160   ar
   104   222   221    2
   105    12    10   ar
   106    12    14   ar
   107    10     8   ar
   108   219   211   am
   109   219   220    1
   110   211   212    2
   111    41    31   am
   112   188   187    1
   113   188   189   ar
   114    55    56   ar
   115    55    57   ar
   116    56    58   ar
   117    32    31    2
   118   187   186    1
   119   164   162   ar
   120     3     2    1
   121     3     4    2
   122     2     5    1
   123    51    52    1
   124    51    50    1
   125    52    53    2
   126    31    30    1
   127     6     8   ar
   128     6     5    1
   129    14    13   ar
   130    57    59   ar
   131     8    11   ar
   132    58    59   ar
   133   221   220    1
   134   221   223   am
   135   160   162   ar
   136   160   159    1
   137   183   186    1
   138   183   184    1
   139   183   182    1
   140   159   156    1
   141    33    30    1
   142    33    34    1
   143    29    30    1
   144    13    11   ar
   145   204   203    2
   146   184   185    2
   147   154   153    1
   148   223   224    1
   149   224   227    1
   150   224   225    1
   151   153   152    1
   152   158   157    2
   153   207   206   ar
   154   156   157    1
   155   156   155    1
   156    34    36   ar
   157    34    35   ar
   158    36    38   ar
   159   203   202    1
   160   206   208   ar
   161   206   205    1
   162   225   226    2
   163   152   151    1
   164   149   148    2
   165   202   205    1
   166   202   201    1
   167   181   179    1
   168   151   150    1
   169   155   148   am
   170   145   142    1
   171   180   178    1
   172   148   147    1
   173    35    37   ar
   174   194   193    2
   175    38    39   ar
   176   150   147    1
   177   140   138   ar
   178   178   179    1
   179   178   175    1
   180   177   176    2
   181   144   143    2
   182   201   193   am
   183   142   143    1
   184   142   141    1
   185   193   192    1
   186   198   200   ar
   187   198   196   ar
   188   147   146    1
   189    37    39   ar
   190    39    40    1
   191   200   199   ar
   192   139   138   ar
   193   173   171   ar
   194   138   137    1
   195   176   175    1
   196   172   171   ar
   197   175   174    1
   198   141   135   am
   199   171   170    1
   200   196   195    1
   201   196   197   ar
   202   192   195    1
   203   192   191    1
   204   136   135    2
   205   199   197   ar
   206   135   134    1
   207   137   134    1
   208   134   133    1
   209   170   169    1
   210   168   167    2
   211   132   130    1
   212   169   166    1
   213   167   166    1
   214   131   130    1
   215   130   129    2
   216   166   165    1
   217   129   128    1
   218   128   127    1
   219   125   124    2
   220   127   126    1
   221   124   123    1
   222   126   123    1
   223   123   122    1
