@<TRIPOS>MOLECULE
tmp/1osfA00.pdb
 170 159 0 0 0
SMALL
GASTEIGER

@<TRIPOS>ATOM
      1  N         69.9730  -26.5620   69.7610 N.3    40  LEU40      -0.1245
      2  CA        69.5760  -26.1410   68.4260 C.3    40  LEU40       0.1561
      3  C         69.4760  -24.6240   68.3440 C.2    40  LEU40       0.2260
      4  O         69.8160  -24.0360   67.3220 O.2    40  LEU40      -0.2867
      5  CB        68.2440  -26.7860   68.0340 C.3    40  LEU40       0.0270
      6  CG        68.2570  -28.3210   68.0210 C.3    40  LEU40       0.0019
      7  CD1       66.9260  -28.8460   67.5100 C.3    40  LEU40       0.0001
      8  CD2       69.3920  -28.8180   67.1350 C.3    40  LEU40       0.0001
      9  N         71.2390  -22.5110   70.1150 N.3    42  SER42      -0.1202
     10  CA        72.6070  -22.0100   70.1100 C.3    42  SER42       0.2020
     11  C         73.2070  -22.1610   68.7150 C.2    42  SER42       0.2619
     12  O         73.9820  -21.3120   68.2750 O.2    42  SER42      -0.2717
     13  CB        73.4630  -22.7600   71.1330 C.3    42  SER42       0.2103
     14  OG        73.1190  -22.3620   72.4490 O.3    42  SER42      -0.2182
     15  N         72.8490  -23.2370   68.0200 N.am   43  ASN43      -0.1960
     16  CA        73.3590  -23.4570   66.6680 C.3    43  ASN43       0.1819
     17  C         72.8520  -22.3510   65.7460 C.2    43  ASN43       0.2622
     18  O         73.6070  -21.8190   64.9350 O.2    43  ASN43      -0.2715
     19  CB        72.9240  -24.8260   66.1330 C.3    43  ASN43       0.1195
     20  CG        73.6000  -25.9730   66.8550 C.2    43  ASN43       0.2630
     21  OD1       74.4430  -25.7630   67.7310 O.2    43  ASN43      -0.2716
     22  ND2       73.2380  -27.1990   66.4870 N.am   43  ASN43      -0.0877
     23  N         71.5730  -22.0090   65.8800 N.am   44  SER44      -0.1950
     24  CA        70.9780  -20.9460   65.0720 C.3    44  SER44       0.1924
     25  C         71.6700  -19.6250   65.3670 C.2    44  SER44       0.2314
     26  O         71.9140  -18.8230   64.4620 O.2    44  SER44      -0.2863
     27  CB        69.4850  -20.8040   65.3790 C.3    44  SER44       0.2116
     28  OG        68.7490  -21.9100   64.8960 O.3    44  SER44      -0.2180
     29  N         74.6940  -19.2070   66.2490 N.3    46  ASP46      -0.1225
     30  CA        75.9960  -19.2440   65.5950 C.3    46  ASP46       0.1805
     31  C         75.8370  -18.9200   64.1150 C.2    46  ASP46       0.2597
     32  O         76.6520  -18.2060   63.5350 O.2    46  ASP46      -0.2718
     33  CB        76.6300  -20.6270   65.7250 C.3    46  ASP46       0.1424
     34  CG        77.9900  -20.6990   65.0660 C.2    46  ASP46       0.3668
     35  OD1       78.9670  -20.1990   65.6620 O.co2  46  ASP46      -0.2456
     36  OD2       78.0770  -21.2390   63.9430 O.co2  46  ASP46      -0.2456
     37  N         74.7860  -19.4640   63.5070 N.am   47  ALA47      -0.1979
     38  CA        74.5230  -19.2370   62.0940 C.3    47  ALA47       0.1597
     39  C         74.1560  -17.7800   61.8610 C.2    47  ALA47       0.2287
     40  O         74.5030  -17.1980   60.8350 O.2    47  ALA47      -0.2864
     41  CB        73.4040  -20.1470   61.6190 C.3    47  ALA47       0.0319
     42  N         77.2170  -15.6130   62.0080 N.3    50  LYS50      -0.1245
     43  CA        77.9890  -15.7090   60.7860 C.3    50  LYS50       0.1561
     44  C         77.4610  -14.8780   59.6290 C.2    50  LYS50       0.2260
     45  O         78.2490  -14.2680   58.9100 O.2    50  LYS50      -0.2867
     46  CB        78.1630  -17.1810   60.4070 C.3    50  LYS50       0.0271
     47  CG        79.0510  -17.8930   61.4250 C.3    50  LYS50       0.0035
     48  CD        79.1980  -19.3770   61.1740 C.3    50  LYS50       0.0206
     49  CE        80.1320  -19.9850   62.2140 C.3    50  LYS50       0.1093
     50  NZ        80.2010  -21.4700   62.1480 N.3    50  LYS50      -0.1314
     51  N         65.8990  -20.5210   61.5220 N.3    85  ASP85      -0.1239
     52  CA        66.6760  -19.3120   61.7130 C.3    85  ASP85       0.1674
     53  C         66.9440  -18.6880   60.3530 C.2    85  ASP85       0.2266
     54  O         66.8030  -19.3400   59.3140 O.2    85  ASP85      -0.2867
     55  CB        67.9980  -19.6080   62.4330 C.3    85  ASP85       0.1410
     56  CG        68.9170  -20.5080   61.6290 C.2    85  ASP85       0.3668
     57  OD1       69.4580  -20.0530   60.5930 O.co2  85  ASP85      -0.2456
     58  OD2       69.0950  -21.6710   62.0340 O.co2  85  ASP85      -0.2456
     59  N         73.2090  -17.9370   58.2720 N.3    88  ILE88      -0.1231
     60  CA        73.9540  -18.0500   57.0210 C.3    88  ILE88       0.1692
     61  C         73.5170  -19.2070   56.1240 C.2    88  ILE88       0.2593
     62  O         73.6870  -19.1540   54.9060 O.2    88  ILE88      -0.2718
     63  CB        75.4720  -18.1670   57.3080 C.3    88  ILE88       0.0266
     64  CG1       76.2640  -18.1480   55.9990 C.3    88  ILE88       0.0019
     65  CG2       75.7510  -19.4300   58.0960 C.3    88  ILE88       0.0020
     66  CD1       77.7550  -17.9880   56.2080 C.3    88  ILE88       0.0001
     67  N         72.9280  -20.2400   56.7170 N.am   89  GLY89      -0.1942
     68  CA        72.5120  -21.3820   55.9260 C.3    89  GLY89       0.2014
     69  C         73.7280  -22.2250   55.5940 C.2    89  GLY89       0.2638
     70  O         74.8530  -21.8610   55.9380 O.2    89  GLY89      -0.2714
     71  N         73.5160  -23.3490   54.9210 N.am   90  MET90      -0.1976
     72  CA        74.6280  -24.2290   54.5880 C.3    90  MET90       0.1605
     73  C         74.6310  -24.6470   53.1330 C.2    90  MET90       0.2287
     74  O         73.5770  -24.7720   52.5070 O.2    90  MET90      -0.2864
     75  CB        74.5890  -25.4790   55.4740 C.3    90  MET90       0.0413
     76  CG        74.8800  -25.2080   56.9410 C.3    90  MET90       0.0598
     77  SD        74.6210  -26.6710   57.9630 S.3    90  MET90      -0.1393
     78  CE        72.8370  -26.5350   58.2520 C.3    90  MET90       0.0692
     79  N         78.7470  -28.1910   52.9530 N.3    94  ASP94      -0.1239
     80  CA        78.6420  -27.9130   54.3860 C.3    94  ASP94       0.1674
     81  C         77.8950  -29.0590   55.0660 C.2    94  ASP94       0.2266
     82  O         78.2860  -29.5290   56.1350 O.2    94  ASP94      -0.2867
     83  CB        77.8700  -26.6170   54.6540 C.3    94  ASP94       0.1410
     84  CG        78.7170  -25.3690   54.4840 C.2    94  ASP94       0.3668
     85  OD1       79.9620  -25.4400   54.5980 O.co2  94  ASP94      -0.2456
     86  OD2       78.1220  -24.2950   54.2650 O.co2  94  ASP94      -0.2456
     87  N         80.2820  -31.3800   57.1860 N.3    98  ASN98      -0.1225
     88  CA        80.0980  -31.0070   58.5820 C.3    98  ASN98       0.1785
     89  C         78.8610  -31.5220   59.2910 C.2    98  ASN98       0.2597
     90  O         78.6920  -31.2770   60.4860 O.2    98  ASN98      -0.2718
     91  CB        80.1970  -29.4870   58.7250 C.3    98  ASN98       0.1169
     92  CG        81.6330  -29.0100   58.7830 C.2    98  ASN98       0.2627
     93  OD1       82.5620  -29.7760   58.5100 O.2    98  ASN98      -0.2716
     94  ND2       81.8270  -27.7460   59.1370 N.am   98  ASN98      -0.0877
     95  N         77.9930  -32.2230   58.5700 N.am   99  LEU99      -0.1980
     96  CA        76.8270  -32.7870   59.2180 C.3    99  LEU99       0.1596
     97  C         76.7990  -34.3020   59.0250 C.2    99  LEU99       0.2287
     98  O         75.7710  -34.8880   58.6750 O.2    99  LEU99      -0.2864
     99  CB        75.5320  -32.1410   58.7120 C.3    99  LEU99       0.0297
    100  CG        74.3710  -32.2480   59.7170 C.3    99  LEU99       0.0022
    101  CD1       74.7950  -31.6560   61.0670 C.3    99  LEU99       0.0001
    102  CD2       73.1480  -31.5160   59.1780 C.3    99  LEU99       0.0001
    103  N         84.8970  -35.3710   64.1190 N.3   104  LYS104     -0.1245
    104  CA        85.0340  -34.1870   64.9550 C.3   104  LYS104      0.1561
    105  C         85.7190  -34.6670   66.2300 C.2   104  LYS104      0.2260
    106  O         85.2730  -35.6330   66.8420 O.2   104  LYS104     -0.2867
    107  CB        83.6580  -33.6030   65.2910 C.3   104  LYS104      0.0271
    108  CG        82.8600  -33.1140   64.0850 C.3   104  LYS104      0.0035
    109  CD        81.4560  -32.6610   64.4860 C.3   104  LYS104      0.0206
    110  CE        81.4770  -31.3750   65.3070 C.3   104  LYS104      0.1093
    111  NZ        81.8710  -30.1800   64.5010 N.3   104  LYS104     -0.1314
    112  N         81.0220  -29.4690   70.8740 N.3   127  GLY127     -0.1210
    113  CA        80.6970  -29.1570   69.4930 C.3   127  GLY127      0.1956
    114  C         79.8500  -30.1480   68.7190 C.2   127  GLY127      0.2612
    115  O         79.8490  -30.1150   67.4900 O.2   127  GLY127     -0.2717
    116  N         79.1320  -31.0290   69.4130 N.am  128  VAL128     -0.1965
    117  CA        78.2800  -32.0060   68.7340 C.3   128  VAL128      0.1727
    118  C         76.8310  -31.9400   69.2200 C.2   128  VAL128      0.2617
    119  O         76.0770  -32.9090   69.1180 O.2   128  VAL128     -0.2715
    120  CB        78.8160  -33.4500   68.9230 C.3   128  VAL128      0.0290
    121  CG1       80.1300  -33.6160   68.1700 C.3   128  VAL128      0.0023
    122  CG2       79.0160  -33.7510   70.4090 C.3   128  VAL128      0.0023
    123  N         76.4440  -30.7710   69.7170 N.am  129  GLY129     -0.1940
    124  CA        75.1020  -30.5690   70.2330 C.3   129  GLY129      0.2014
    125  C         73.9500  -30.8200   69.2770 C.2   129  GLY129      0.2639
    126  O         72.8420  -31.1220   69.7180 O.2   129  GLY129     -0.2714
    127  N         74.1810  -30.6880   67.9760 N.am  130  PHE130     -0.1959
    128  CA        73.0990  -30.9290   67.0250 C.3   130  PHE130      0.1771
    129  C         72.5040  -32.3120   67.2400 C.2   130  PHE130      0.2619
    130  O         71.2900  -32.4930   67.1990 O.2   130  PHE130     -0.2715
    131  CB        73.6050  -30.8480   65.5840 C.3   130  PHE130      0.0574
    132  CG        72.6710  -31.4730   64.5850 C.ar  130  PHE130     -0.0200
    133  CD1       71.4770  -30.8490   64.2430 C.ar  130  PHE130     -0.0042
    134  CD2       72.9620  -32.7110   64.0250 C.ar  130  PHE130     -0.0042
    135  CE1       70.5820  -31.4500   63.3550 C.ar  130  PHE130     -0.0003
    136  CE2       72.0780  -33.3180   63.1410 C.ar  130  PHE130     -0.0003
    137  CZ        70.8860  -32.6880   62.8050 C.ar  130  PHE130     -0.0000
    138  N         73.3760  -33.2830   67.4840 N.am  131  TYR131     -0.1974
    139  CA        72.9530  -34.6590   67.6510 C.3   131  TYR131      0.1639
    140  C         72.0650  -34.9080   68.8600 C.2   131  TYR131      0.2290
    141  O         71.4590  -35.9730   68.9840 O.2   131  TYR131     -0.2864
    142  CB        74.1920  -35.5560   67.6390 C.3   131  TYR131      0.0560
    143  CG        74.8830  -35.4860   66.2940 C.ar  131  TYR131     -0.0198
    144  CD1       74.2960  -36.0550   65.1640 C.ar  131  TYR131     -0.0009
    145  CD2       76.0760  -34.7830   66.1310 C.ar  131  TYR131     -0.0009
    146  CE1       74.8720  -35.9250   63.9070 C.ar  131  TYR131      0.0417
    147  CE2       76.6620  -34.6440   64.8710 C.ar  131  TYR131      0.0417
    148  CZ        76.0490  -35.2190   63.7670 C.ar  131  TYR131      0.1957
    149  OH        76.6070  -35.0760   62.5250 O.3   131  TYR131     -0.2866
    150  N         66.7850  -31.5530   57.9150 N.3   142  VAL142     -0.1245
    151  CA        67.3780  -30.2240   57.9150 C.3   142  VAL142      0.1561
    152  C         67.2380  -29.6040   56.5310 C.2   142  VAL142      0.2260
    153  O         67.7730  -30.1220   55.5510 O.2   142  VAL142     -0.2867
    154  CB        68.8720  -30.2760   58.3060 C.3   142  VAL142      0.0252
    155  CG1       69.4800  -28.8720   58.2890 C.3   142  VAL142      0.0019
    156  CG2       69.0120  -30.8780   59.6950 C.3   142  VAL142      0.0019
    157  N         68.2820  -21.8110   57.9800 N.3   176  THR176     -0.1218
    158  CA        68.1640  -23.2370   58.1810 C.3   176  THR176      0.1862
    159  C         66.9380  -23.5950   58.9850 C.2   176  THR176      0.2287
    160  O         66.5380  -22.8760   59.9010 O.2   176  THR176     -0.2866
    161  CB        69.4130  -23.7730   58.8900 C.3   176  THR176      0.1770
    162  OG1       70.5440  -23.5550   58.0430 O.3   176  THR176     -0.2211
    163  CG2       69.2800  -25.2510   59.1930 C.3   176  THR176      0.0375
    164  N         65.4100  -26.8490   61.0950 N.3   178  VAL178     -0.1245
    165  CA        65.6760  -28.1730   61.6510 C.3   178  VAL178      0.1561
    166  C         64.3230  -28.7300   62.0750 C.2   178  VAL178      0.2260
    167  O         63.7150  -28.2640   63.0410 O.2   178  VAL178     -0.2867
    168  CB        66.6350  -28.1150   62.8690 C.3   178  VAL178      0.0252
    169  CG1       66.8250  -29.5140   63.4430 C.3   178  VAL178      0.0019
    170  CG2       67.9850  -27.5460   62.4400 C.3   178  VAL178      0.0019
@<TRIPOS>BOND
     1    74    73    2
     2    79    80    1
     3    73    72    1
     4    86    84   ar
     5    80    83    1
     6    80    81    1
     7    84    85   ar
     8    84    83    1
     9    72    71    1
    10    72    75    1
    11    62    61    2
    12    71    69   am
    13    81    82    2
    14    75    76    1
    15   153   152    2
    16    69    68    1
    17    69    70    2
    18    68    67    1
    19    64    66    1
    20    64    63    1
    21    61    67   am
    22    61    60    1
    23   152   151    1
    24    76    77    1
    25    60    63    1
    26    60    59    1
    27    87    88    1
    28    63    65    1
    29   151   150    1
    30   151   154    1
    31    77    78    1
    32   157   158    1
    33   162   161    1
    34   158   161    1
    35   158   159    1
    36   155   154    1
    37   154   156    1
    38    93    92    2
    39    95    96    1
    40    95    89   am
    41    88    91    1
    42    88    89    1
    43    98    97    2
    44    99    96    1
    45    99   100    1
    46    91    92    1
    47    92    94   am
    48   161   163    1
    49    45    44    2
    50   159   160    2
    51    97    96    1
    52   102   100    1
    53    89    90    2
    54    54    53    2
    55    44    43    1
    56   100   101    1
    57    53    52    1
    58    46    43    1
    59    46    47    1
    60    57    56   ar
    61    43    42    1
    62    40    39    2
    63   164   165    1
    64    48    47    1
    65    48    49    1
    66    51    52    1
    67    41    38    1
    68    56    58   ar
    69    56    55    1
    70   165   166    1
    71   165   168    1
    72    52    55    1
    73    39    38    1
    74   166   167    2
    75    38    37    1
    76    50    49    1
    77   170   168    1
    78   149   148    1
    79   137   136   ar
    80   137   135   ar
    81   168   169    1
    82   136   134   ar
    83   135   133   ar
    84    37    31   am
    85    32    31    2
    86   148   146   ar
    87   148   147   ar
    88   146   144   ar
    89    36    34   ar
    90   134   132   ar
    91   108   109    1
    92   108   107    1
    93    31    30    1
    94   103   104    1
    95   133   132   ar
    96    26    25    2
    97   109   110    1
    98   111   110    1
    99   132   131    1
   100   147   145   ar
   101    28    27    1
   102    18    17    2
   103   104   107    1
   104   104   105    1
   105    34    35   ar
   106    34    33    1
   107    24    25    1
   108    24    27    1
   109    24    23    1
   110   144   143   ar
   111   131   128    1
   112    30    33    1
   113    30    29    1
   114    17    23   am
   115    17    16    1
   116   145   143   ar
   117    19    16    1
   118    19    20    1
   119   105   106    2
   120   143   142    1
   121    22    20   am
   122    16    15    1
   123    20    21    2
   124   128   129    1
   125   128   127    1
   126     8     6    1
   127   130   129    2
   128   129   138   am
   129     4     3    2
   130   138   139    1
   131   115   114    2
   132     7     6    1
   133   142   139    1
   134   139   140    1
   135   127   125   am
   136    15    11   am
   137     6     5    1
   138     5     2    1
   139   121   120    1
   140    12    11    2
   141     3     2    1
   142     2     1    1
   143    11    10    1
   144   114   116   am
   145   114   113    1
   146   117   120    1
   147   117   118    1
   148   117   116    1
   149   140   141    2
   150   120   122    1
   151   119   118    2
   152   118   123   am
   153   125   126    2
   154   125   124    1
   155   113   112    1
   156   123   124    1
   157    10     9    1
   158    10    13    1
   159    13    14    1
