@<TRIPOS>MOLECULE
tmp/1osmA04.pdb
 82 80 0 0 0
SMALL
GASTEIGER

@<TRIPOS>ATOM
      1  N          3.7420  -33.0460   25.7230 N.3   181  VAL181     -0.1245
      2  CA         4.3410  -33.7900   24.6120 C.3   181  VAL181      0.1561
      3  C          3.2480  -34.2610   23.6600 C.2   181  VAL181      0.2260
      4  O          2.2720  -34.8940   24.0820 O.2   181  VAL181     -0.2867
      5  CB         5.0700  -35.0680   25.0700 C.3   181  VAL181      0.0252
      6  CG1        5.6750  -35.7590   23.8600 C.3   181  VAL181      0.0019
      7  CG2        6.1500  -34.7480   26.0860 C.3   181  VAL181      0.0019
      8  N         -1.6140  -37.9710   19.2170 N.3   191  ALA191     -0.1231
      9  CA        -1.8050  -38.3590   20.6030 C.3   191  ALA191      0.1694
     10  C         -0.9450  -37.4380   21.4680 C.2   191  ALA191      0.2593
     11  O          0.0880  -36.9410   21.0030 O.2   191  ALA191     -0.2718
     12  CB        -1.4030  -39.7990   20.7880 C.3   191  ALA191      0.0304
     13  N         -1.3700  -37.1900   22.7090 N.am  192  GLY192     -0.1942
     14  CA        -0.5940  -36.3180   23.5800 C.3   192  GLY192      0.2014
     15  C         -0.8410  -36.4790   25.0670 C.2   192  GLY192      0.2638
     16  O         -1.9180  -36.9120   25.4790 O.2   192  GLY192     -0.2714
     17  N          0.1650  -36.1330   25.8700 N.am  193  PHE193     -0.1973
     18  CA         0.0770  -36.2400   27.3220 C.3   193  PHE193      0.1639
     19  C          0.6960  -34.9770   27.8950 C.2   193  PHE193      0.2290
     20  O          1.6320  -34.4330   27.3150 O.2   193  PHE193     -0.2864
     21  CB         0.8400  -37.4890   27.8220 C.3   193  PHE193      0.0560
     22  CG         1.2890  -37.4060   29.3060 C.ar  193  PHE193     -0.0200
     23  CD1        2.5220  -36.7930   29.6750 C.ar  193  PHE193     -0.0042
     24  CD2        0.4670  -37.9150   30.3510 C.ar  193  PHE193     -0.0042
     25  CE1        2.9350  -36.6810   31.0740 C.ar  193  PHE193     -0.0003
     26  CE2        0.8680  -37.8080   31.7490 C.ar  193  PHE193     -0.0003
     27  CZ         2.1060  -37.1870   32.0980 C.ar  193  PHE193     -0.0000
     28  N         -4.2580  -36.8240   29.2490 N.3   220  GLY220     -0.1210
     29  CA        -3.9050  -37.5010   28.0100 C.3   220  GLY220      0.1956
     30  C         -5.0150  -37.3380   26.9770 C.2   220  GLY220      0.2612
     31  O         -6.1950  -37.3250   27.3380 O.2   220  GLY220     -0.2717
     32  N         -4.6560  -37.2550   25.6950 N.am  221  GLY221     -0.1942
     33  CA        -5.6580  -37.0590   24.6590 C.3   221  GLY221      0.2014
     34  C         -5.3750  -37.7220   23.3200 C.2   221  GLY221      0.2638
     35  O         -4.2390  -38.0990   23.0170 O.2   221  GLY221     -0.2714
     36  N         -6.4110  -37.7660   22.4840 N.am  222  LEU222     -0.1977
     37  CA        -6.3660  -38.4030   21.1730 C.3   222  LEU222      0.1596
     38  C         -7.2120  -37.6350   20.1690 C.2   222  LEU222      0.2287
     39  O         -8.3170  -37.1710   20.4890 O.2   222  LEU222     -0.2864
     40  CB        -6.9430  -39.7960   21.3080 C.3   222  LEU222      0.0297
     41  CG        -6.2830  -40.9210   20.5430 C.3   222  LEU222      0.0022
     42  CD1       -4.8210  -40.9820   20.9270 C.3   222  LEU222      0.0001
     43  CD2       -6.9950  -42.2040   20.9140 C.3   222  LEU222      0.0001
     44  N        -11.0180  -36.5890   21.7250 N.3   233  THR233     -0.1203
     45  CA       -11.3750  -36.9240   23.0880 C.3   233  THR233      0.1994
     46  C        -10.2370  -36.6120   24.0490 C.2   233  THR233      0.2618
     47  O         -9.0570  -36.7420   23.7050 O.2   233  THR233     -0.2717
     48  CB       -11.7500  -38.3990   23.2080 C.3   233  THR233      0.1784
     49  OG1      -12.3220  -38.6340   24.4990 O.3   233  THR233     -0.2211
     50  CG2      -10.5260  -39.2580   23.0240 C.3   233  THR233      0.0376
     51  N        -10.6080  -36.1990   25.2590 N.am  234  GLN234     -0.1965
     52  CA        -9.6360  -35.8440   26.2890 C.3   234  GLN234      0.1733
     53  C        -10.0360  -36.3420   27.6640 C.2   234  GLN234      0.2616
     54  O        -11.2160  -36.2800   28.0440 O.2   234  GLN234     -0.2715
     55  CB        -9.4570  -34.3280   26.3400 C.3   234  GLN234      0.0408
     56  CG        -8.6560  -33.8250   27.5300 C.3   234  GLN234      0.0908
     57  CD        -9.5120  -33.2780   28.6780 C.2   234  GLN234      0.2608
     58  OE1       -9.1530  -33.4220   29.8420 O.2   234  GLN234     -0.2717
     59  NE2      -10.6050  -32.6070   28.3500 N.am  234  GLN234     -0.0878
     60  N         -9.0340  -36.8000   28.4130 N.am  235  TYR235     -0.1974
     61  CA        -9.2310  -37.2980   29.7650 C.3   235  TYR235      0.1639
     62  C         -8.1590  -36.7490   30.6730 C.2   235  TYR235      0.2290
     63  O         -6.9610  -36.8630   30.3990 O.2   235  TYR235     -0.2864
     64  CB        -9.1820  -38.8170   29.8180 C.3   235  TYR235      0.0560
     65  CG        -9.3910  -39.3530   31.2210 C.ar  235  TYR235     -0.0198
     66  CD1      -10.6800  -39.4570   31.7630 C.ar  235  TYR235     -0.0009
     67  CD2       -8.3040  -39.7330   32.0190 C.ar  235  TYR235     -0.0009
     68  CE1      -10.8840  -39.9270   33.0690 C.ar  235  TYR235      0.0417
     69  CE2       -8.4960  -40.2050   33.3250 C.ar  235  TYR235      0.0417
     70  CZ        -9.7870  -40.2990   33.8430 C.ar  235  TYR235      0.1957
     71  OH        -9.9750  -40.7630   35.1300 O.3   235  TYR235     -0.2866
     72  N        -13.8390  -35.6970   31.6500 N.3   256  PHE256     -0.1241
     73  CA       -13.8680  -36.3630   30.3510 C.3   256  PHE256      0.1605
     74  C        -14.6690  -35.5630   29.2990 C.2   256  PHE256      0.2264
     75  O        -15.7860  -35.1100   29.5870 O.2   256  PHE256     -0.2867
     76  CB       -14.4530  -37.7760   30.5410 C.3   256  PHE256      0.0534
     77  CG       -14.6230  -38.5560   29.2600 C.ar  256  PHE256     -0.0203
     78  CD1      -13.5070  -39.0290   28.5540 C.ar  256  PHE256     -0.0042
     79  CD2      -15.9060  -38.7940   28.7380 C.ar  256  PHE256     -0.0042
     80  CE1      -13.6680  -39.7220   27.3400 C.ar  256  PHE256     -0.0003
     81  CE2      -16.0760  -39.4850   27.5270 C.ar  256  PHE256     -0.0003
     82  CZ       -14.9550  -39.9490   26.8240 C.ar  256  PHE256     -0.0000
@<TRIPOS>BOND
     1     8     9    1
     2    38    39    2
     3    38    37    1
     4    41    43    1
     5    41    42    1
     6    41    40    1
     7     9    12    1
     8     9    10    1
     9    11    10    2
    10    37    40    1
    11    37    36    1
    12    10    13   am
    13    44    45    1
    14    36    34   am
    15    13    14    1
    16    35    34    2
    17    50    48    1
    18    45    48    1
    19    45    46    1
    20    48    49    1
    21    34    33    1
    22    14    15    1
    23     3     4    2
    24     3     2    1
    25    47    46    2
    26     6     5    1
    27    46    51   am
    28     2     5    1
    29     2     1    1
    30    33    32    1
    31    15    16    2
    32    15    17   am
    33     5     7    1
    34    51    52    1
    35    32    30   am
    36    17    18    1
    37    52    55    1
    38    52    53    1
    39    55    56    1
    40    82    80   ar
    41    82    81   ar
    42    30    31    2
    43    30    29    1
    44    20    19    2
    45    18    21    1
    46    18    19    1
    47    80    78   ar
    48    81    79   ar
    49    56    57    1
    50    53    54    2
    51    53    60   am
    52    21    22    1
    53    29    28    1
    54    59    57   am
    55    60    61    1
    56    78    77   ar
    57    57    58    2
    58    79    77   ar
    59    77    76    1
    60    74    75    2
    61    74    73    1
    62    22    23   ar
    63    22    24   ar
    64    23    25   ar
    65    61    64    1
    66    61    62    1
    67    64    65    1
    68    73    76    1
    69    73    72    1
    70    24    26   ar
    71    63    62    2
    72    25    27   ar
    73    65    66   ar
    74    65    67   ar
    75    26    27   ar
    76    66    68   ar
    77    67    69   ar
    78    68    70   ar
    79    69    70   ar
    80    70    71    1
