@<TRIPOS>MOLECULE
tmp/1osnB00.pdb
 118 114 0 0 0
SMALL
GASTEIGER

@<TRIPOS>ATOM
      1  N         46.5390   29.4860   62.6200 N.3    12  TYR12      -0.1227
      2  CA        46.6720   30.9130   62.9020 C.3    12  TYR12       0.1736
      3  C         45.4450   31.7200   62.5070 C.2    12  TYR12       0.2596
      4  O         44.6770   31.3030   61.6480 O.2    12  TYR12      -0.2718
      5  CB        47.9170   31.4810   62.2090 C.3    12  TYR12       0.0548
      6  CG        47.8340   31.6250   60.7050 C.ar   12  TYR12      -0.0200
      7  CD1       47.1350   32.6770   60.1190 C.ar   12  TYR12      -0.0009
      8  CD2       48.4950   30.7310   59.8680 C.ar   12  TYR12      -0.0009
      9  CE1       47.1020   32.8370   58.7370 C.ar   12  TYR12       0.0417
     10  CE2       48.4680   30.8800   58.4860 C.ar   12  TYR12       0.0417
     11  CZ        47.7720   31.9350   57.9260 C.ar   12  TYR12       0.1957
     12  OH        47.7490   32.0870   56.5590 O.3    12  TYR12      -0.2866
     13  N         45.2690   32.8760   63.1430 N.am   13  GLY13      -0.1942
     14  CA        44.1280   33.7240   62.8530 C.3    13  GLY13       0.2014
     15  C         42.8420   33.1790   63.4450 C.2    13  GLY13       0.2639
     16  O         41.8330   33.8800   63.5040 O.2    13  GLY13      -0.2714
     17  N         42.8800   31.9260   63.8890 N.am   14  ILE14      -0.1963
     18  CA        41.7110   31.2750   64.4770 C.3    14  ILE14       0.1727
     19  C         41.1570   32.0060   65.7060 C.2    14  ILE14       0.2617
     20  O         39.9590   31.9300   65.9850 O.2    14  ILE14      -0.2715
     21  CB        42.0140   29.7960   64.8750 C.3    14  ILE14       0.0290
     22  CG1       43.3330   29.7190   65.6460 C.3    14  ILE14       0.0022
     23  CG2       42.0510   28.9130   63.6420 C.3    14  ILE14       0.0023
     24  CD1       43.6170   28.3560   66.2510 C.3    14  ILE14       0.0001
     25  N         42.0210   32.7040   66.4400 N.am   15  GLY15      -0.1940
     26  CA        41.5670   33.4220   67.6180 C.3    15  GLY15       0.2014
     27  C         41.9740   32.7980   68.9370 C.2    15  GLY15       0.2639
     28  O         41.3410   33.0280   69.9630 O.2    15  GLY15      -0.2714
     29  N         43.0430   32.0120   68.9130 N.am   16  LYS16      -0.1963
     30  CA        43.5330   31.3470   70.1170 C.3    16  LYS16       0.1728
     31  C         44.2360   32.2940   71.0770 C.2    16  LYS16       0.2617
     32  O         44.7420   31.8770   72.1070 O.2    16  LYS16      -0.2715
     33  CB        44.4740   30.1780   69.7570 C.3    16  LYS16       0.0311
     34  CG        45.3090   30.3690   68.4880 C.3    16  LYS16       0.0038
     35  CD        46.4820   29.4030   68.4340 C.3    16  LYS16       0.0206
     36  CE        47.5140   29.7820   69.4820 C.3    16  LYS16       0.1093
     37  NZ        47.9120   31.2200   69.3240 N.3    16  LYS16      -0.1314
     38  N         44.2680   33.5730   70.7430 N.am   17  THR17      -0.1937
     39  CA        44.9100   34.5370   71.6190 C.3    17  THR17       0.2028
     40  C         43.8510   35.3610   72.3420 C.2    17  THR17       0.2643
     41  O         43.9310   35.5440   73.5550 O.2    17  THR17      -0.2714
     42  CB        45.8760   35.4730   70.8350 C.3    17  THR17       0.1808
     43  OG1       46.9970   34.7170   70.3570 O.3    17  THR17      -0.2208
     44  CG2       46.3930   36.5810   71.7290 C.3    17  THR17       0.0379
     45  N         42.8490   35.8440   71.6090 N.am   18  THR18      -0.1936
     46  CA        41.7970   36.6440   72.2320 C.3    18  THR18       0.2028
     47  C         40.9130   35.7320   73.0740 C.2    18  THR18       0.2642
     48  O         40.0820   36.1990   73.8560 O.2    18  THR18      -0.2714
     49  CB        40.9140   37.3700   71.1870 C.3    18  THR18       0.1808
     50  OG1       41.6790   37.6280   70.0050 O.3    18  THR18      -0.2208
     51  CG2       40.4320   38.7120   71.7480 C.3    18  THR18       0.0379
     52  N         41.1070   34.4280   72.9080 N.am   19  ALA19      -0.1977
     53  CA        40.3440   33.4380   73.6520 C.3    19  ALA19       0.1597
     54  C         41.2060   32.8790   74.7710 C.2    19  ALA19       0.2287
     55  O         40.7100   32.2360   75.6890 O.2    19  ALA19      -0.2864
     56  CB        39.8920   32.3210   72.7270 C.3    19  ALA19       0.0319
     57  N         52.8730   35.1480   72.5230 N.3    39  GLU39      -0.1245
     58  CA        53.7720   34.9680   71.3820 C.3    39  GLU39       0.1567
     59  C         54.7300   36.1500   71.3370 C.2    39  GLU39       0.2260
     60  O         54.3220   37.2960   71.5140 O.2    39  GLU39      -0.2867
     61  CB        52.9820   34.8670   70.0760 C.3    39  GLU39       0.0388
     62  CG        52.3040   33.5170   69.8750 C.3    39  GLU39       0.1160
     63  CD        51.6960   33.3700   68.4960 C.2    39  GLU39       0.3649
     64  OE1       51.2440   32.2550   68.1660 O.co2  39  GLU39      -0.2457
     65  OE2       51.6680   34.3670   67.7420 O.co2  39  GLU39      -0.2457
     66  N         51.2140   28.9040   72.1070 N.3   113  ARG113     -0.1245
     67  CA        51.9600   28.0760   71.1700 C.3   113  ARG113      0.1563
     68  C         53.1440   27.3860   71.8220 C.2   113  ARG113      0.2260
     69  O         53.7850   27.9430   72.7110 O.2   113  ARG113     -0.2867
     70  CB        52.4400   28.8990   69.9700 C.3   113  ARG113      0.0307
     71  CG        51.3730   29.0730   68.9040 C.3   113  ARG113      0.0489
     72  CD        51.9740   29.4340   67.5650 C.3   113  ARG113      0.2205
     73  NE        51.1480   28.9410   66.4710 N.pl3 113  ARG113     -0.0865
     74  CZ        49.9800   29.4630   66.1130 C.cat 113  ARG113      0.5346
     75  NH1       49.4810   30.5090   66.7570 N.pl3 113  ARG113      0.1354
     76  NH2       49.3030   28.9320   65.1050 N.pl3 113  ARG113      0.1354
     77  N         38.0320   34.7240   60.1060 N.3   166  ARG166     -0.1245
     78  CA        38.8150   35.1930   61.2510 C.3   166  ARG166      0.1563
     79  C         40.1070   35.8340   60.7630 C.2   166  ARG166      0.2260
     80  O         40.7000   36.6720   61.4460 O.2   166  ARG166     -0.2867
     81  CB        39.1610   34.0270   62.1830 C.3   166  ARG166      0.0307
     82  CG        37.9700   33.3100   62.7980 C.3   166  ARG166      0.0489
     83  CD        37.2370   34.1880   63.7930 C.3   166  ARG166      0.2205
     84  NE        36.1360   33.4740   64.4360 N.pl3 166  ARG166     -0.0865
     85  CZ        36.2910   32.4330   65.2490 C.cat 166  ARG166      0.5346
     86  NH1       37.5040   31.9780   65.5260 N.pl3 166  ARG166      0.1354
     87  NH2       35.2300   31.8450   65.7860 N.pl3 166  ARG166      0.1354
     88  N         37.0970   26.5370   69.3000 N.3   275  LEU275     -0.1245
     89  CA        36.9310   27.9770   69.4340 C.3   275  LEU275      0.1561
     90  C         35.7610   28.4430   68.5810 C.2   275  LEU275      0.2260
     91  O         35.6920   29.6050   68.1820 O.2   275  LEU275     -0.2867
     92  CB        38.2060   28.7140   69.0100 C.3   275  LEU275      0.0270
     93  CG        39.4640   28.4740   69.8440 C.3   275  LEU275      0.0019
     94  CD1       40.5460   29.4320   69.4070 C.3   275  LEU275      0.0001
     95  CD2       39.1530   28.6850   71.3040 C.3   275  LEU275      0.0001
     96  N         32.7280   29.4820   68.9880 N.3   277  GLN277     -0.1231
     97  CA        31.7350   30.0870   69.8700 C.3   277  GLN277      0.1698
     98  C         32.3030   31.3250   70.5580 C.2   277  GLN277      0.2593
     99  O         33.4360   31.7310   70.2910 O.2   277  GLN277     -0.2718
    100  CB        31.2770   29.0770   70.9240 C.3   277  GLN277      0.0381
    101  CG        32.4160   28.4250   71.6850 C.3   277  GLN277      0.0905
    102  CD        31.9370   27.3420   72.6390 C.2   277  GLN277      0.2608
    103  OE1       32.7370   26.6950   73.3180 O.2   277  GLN277     -0.2717
    104  NE2       30.6220   27.1420   72.6980 N.am  277  GLN277     -0.0878
    105  N         31.5050   31.9250   71.4370 N.am  278  THR278     -0.1940
    106  CA        31.9240   33.1180   72.1710 C.3   278  THR278      0.2013
    107  C         33.1330   32.8000   73.0400 C.2   278  THR278      0.2484
    108  O         33.1920   31.7490   73.6830 O.2   278  THR278     -0.2729
    109  CB        30.7910   33.6540   73.0840 C.3   278  THR278      0.1807
    110  OG1       30.4020   32.6360   74.0200 O.3   278  THR278     -0.2208
    111  CG2       29.5810   34.0750   72.2500 C.3   278  THR278      0.0379
    112  N         34.1150   33.7110   73.0730 N.am  279  PRO279     -0.2726
    113  CA        35.3260   33.5130   73.8720 C.3   279  PRO279      0.1402
    114  C         35.0020   33.0180   75.2740 C.2   279  PRO279      0.2269
    115  O         35.7720   32.2660   75.8710 O.2   279  PRO279     -0.2865
    116  CB        35.9620   34.8960   73.8730 C.3   279  PRO279      0.0296
    117  CG        35.5870   35.4220   72.5300 C.3   279  PRO279      0.0237
    118  CD        34.1300   35.0290   72.4200 C.3   279  PRO279      0.0939
@<TRIPOS>BOND
     1    12    11    1
     2    11    10   ar
     3    11     9   ar
     4    10     8   ar
     5     9     7   ar
     6     8     6   ar
     7    77    78    1
     8     7     6   ar
     9     6     5    1
    10    79    78    1
    11    79    80    2
    12    78    81    1
    13     4     3    2
    14    81    82    1
    15     5     2    1
    16     3     2    1
    17     3    13   am
    18     1     2    1
    19    82    83    1
    20    14    13    1
    21    14    15    1
    22    15    16    2
    23    15    17   am
    24    23    21    1
    25    83    84    1
    26    17    18    1
    27    84    85    2
    28    18    21    1
    29    18    19    1
    30    21    22    1
    31    76    74    1
    32    85    86    1
    33    85    87    1
    34    22    24    1
    35    19    20    2
    36    19    25   am
    37    74    73    2
    38    74    75    1
    39    25    26    1
    40    73    72    1
    41    72    71    1
    42    26    27    1
    43    65    63   ar
    44    64    63   ar
    45    91    90    2
    46    35    34    1
    47    35    36    1
    48    34    33    1
    49    63    62    1
    50    90    89    1
    51    71    70    1
    52    29    27   am
    53    29    30    1
    54    27    28    2
    55    96    97    1
    56    92    89    1
    57    92    93    1
    58    88    89    1
    59    37    36    1
    60    94    93    1
    61    33    30    1
    62    93    95    1
    63    97    98    1
    64    97   100    1
    65    62    61    1
    66    70    67    1
    67    50    49    1
    68    61    58    1
    69    30    31    1
    70    99    98    2
    71    43    42    1
    72    98   105   am
    73    38    31   am
    74    38    39    1
    75    42    39    1
    76    42    44    1
    77   100   101    1
    78    31    32    2
    79    67    68    1
    80    67    66    1
    81    49    51    1
    82    49    46    1
    83    59    58    1
    84    59    60    2
    85    58    57    1
    86   105   106    1
    87    45    46    1
    88    45    40   am
    89    39    40    1
    90   101   102    1
    91    68    69    2
    92   106   107    1
    93   106   109    1
    94    46    47    1
    95   111   109    1
    96    40    41    2
    97   118   117    1
    98   118   112    1
    99   117   116    1
   100   102   104   am
   101   102   103    2
   102    56    53    1
   103    52    47   am
   104    52    53    1
   105   107   112   am
   106   107   108    2
   107   112   113    1
   108    47    48    2
   109   109   110    1
   110    53    54    1
   111   113   116    1
   112   113   114    1
   113    54    55    2
   114   114   115    2
