@<TRIPOS>MOLECULE
tmp/1osnA00.pdb
 76 74 0 0 0
SMALL
GASTEIGER

@<TRIPOS>ATOM
      1  N         90.5570   25.2430   61.6200 N.3    13  ALA13      -0.1231
      2  CA        90.2170   25.6540   60.2640 C.3    13  ALA13       0.1694
      3  C         90.1030   24.4240   59.3500 C.2    13  ALA13       0.2592
      4  O         90.3460   23.2870   59.7810 O.2    13  ALA13      -0.2718
      5  CB        91.2680   26.6050   59.7340 C.3    13  ALA13       0.0304
      6  N         89.7340   24.6540   58.0890 N.am   14  TYR14      -0.1962
      7  CA        89.5760   23.5610   57.1280 C.3    14  TYR14       0.1771
      8  C         90.7460   23.4500   56.1510 C.2    14  TYR14       0.2620
      9  O         91.4580   24.4310   55.9060 O.2    14  TYR14      -0.2715
     10  CB        88.2500   23.7110   56.3560 C.3    14  TYR14       0.0574
     11  CG        88.1890   24.8270   55.3210 C.ar   14  TYR14      -0.0198
     12  CD1       88.8030   24.6900   54.0760 C.ar   14  TYR14      -0.0009
     13  CD2       87.4860   26.0050   55.5800 C.ar   14  TYR14      -0.0009
     14  CE1       88.7170   25.6970   53.1150 C.ar   14  TYR14       0.0417
     15  CE2       87.3940   27.0160   54.6280 C.ar   14  TYR14       0.0417
     16  CZ        88.0090   26.8600   53.3980 C.ar   14  TYR14       0.1957
     17  OH        87.9070   27.8690   52.4570 O.3    14  TYR14      -0.2866
     18  N         90.9380   22.2500   55.5980 N.am   15  GLY15      -0.1940
     19  CA        92.0290   22.0180   54.6640 C.3    15  GLY15       0.2014
     20  C         93.3840   21.9490   55.3580 C.2    15  GLY15       0.2639
     21  O         94.3750   21.5250   54.7590 O.2    15  GLY15      -0.2714
     22  N         93.4210   22.3630   56.6260 N.am   16  ILE16      -0.1963
     23  CA        94.6490   22.3620   57.4210 C.3    16  ILE16       0.1727
     24  C         95.2860   20.9750   57.5500 C.2    16  ILE16       0.2617
     25  O         96.5050   20.8610   57.7000 O.2    16  ILE16      -0.2715
     26  CB        94.4070   22.9280   58.8590 C.3    16  ILE16       0.0290
     27  CG1       93.1570   22.2900   59.4790 C.3    16  ILE16       0.0022
     28  CG2       94.2970   24.4460   58.8150 C.3    16  ILE16       0.0023
     29  CD1       92.9340   22.6450   60.9420 C.3    16  ILE16       0.0001
     30  N         94.4690   19.9260   57.5000 N.am   17  GLY17      -0.1940
     31  CA        95.0050   18.5810   57.6140 C.3    17  GLY17       0.2014
     32  C         94.7130   17.8970   58.9370 C.2    17  GLY17       0.2639
     33  O         95.4110   16.9550   59.3290 O.2    17  GLY17      -0.2714
     34  N         93.6730   18.3610   59.6230 N.am   18  LYS18      -0.1963
     35  CA        93.3060   17.7930   60.9090 C.3    18  LYS18       0.1728
     36  C         92.6680   16.4210   60.7970 C.2    18  LYS18       0.2617
     37  O         92.2710   15.8310   61.7990 O.2    18  LYS18      -0.2715
     38  CB        92.3780   18.7460   61.6760 C.3    18  LYS18       0.0311
     39  CG        91.4500   19.5700   60.8180 C.3    18  LYS18       0.0038
     40  CD        90.3080   20.1250   61.6400 C.3    18  LYS18       0.0206
     41  CE        89.3730   19.0020   62.0670 C.3    18  LYS18       0.1093
     42  NZ        88.8980   18.2370   60.8810 N.3    18  LYS18      -0.1314
     43  N         92.5680   15.9050   59.5820 N.am   19  THR19      -0.1937
     44  CA        91.9840   14.5830   59.3980 C.3    19  THR19       0.2028
     45  C         93.0700   13.5430   59.0940 C.2    19  THR19       0.2642
     46  O         93.0640   12.4540   59.6740 O.2    19  THR19      -0.2714
     47  CB        90.9160   14.5760   58.2660 C.3    19  THR19       0.1808
     48  OG1       89.7850   15.3610   58.6690 O.3    19  THR19      -0.2208
     49  CG2       90.4440   13.1560   57.9810 C.3    19  THR19       0.0379
     50  N         94.0050   13.8760   58.2020 N.am   20  THR20      -0.1950
     51  CA        95.0810   12.9450   57.8560 C.3    20  THR20       0.1897
     52  C         96.0730   12.8840   59.0140 C.2    20  THR20       0.2313
     53  O         96.9480   12.0220   59.0580 O.2    20  THR20      -0.2863
     54  CB        95.8300   13.3740   56.5660 C.3    20  THR20       0.1794
     55  OG1       94.9350   14.0750   55.6920 O.3    20  THR20      -0.2208
     56  CG2       96.3500   12.1420   55.8260 C.3    20  THR20       0.0378
     57  N         84.1210   13.0870   60.0840 N.3    41  GLU41      -0.1245
     58  CA        83.1290   14.0510   59.6220 C.3    41  GLU41       0.1567
     59  C         82.1470   13.3070   58.7350 C.2    41  GLU41       0.2260
     60  O         82.5560   12.4780   57.9320 O.2    41  GLU41      -0.2867
     61  CB        83.8000   15.1830   58.8440 C.3    41  GLU41       0.0388
     62  CG        84.4800   16.2110   59.7470 C.3    41  GLU41       0.1160
     63  CD        84.9830   17.4280   58.9800 C.2    41  GLU41       0.3649
     64  OE1       85.4370   18.4030   59.6210 O.co2  41  GLU41      -0.2457
     65  OE2       84.9240   17.4050   57.7320 O.co2  41  GLU41      -0.2457
     66  N         85.8890   17.2910   64.6250 N.3   123  ARG123     -0.1245
     67  CA        85.1090   18.5130   64.7920 C.3   123  ARG123      0.1563
     68  C         84.0160   18.3600   65.8400 C.2   123  ARG123      0.2260
     69  O         83.4560   17.2730   66.0250 O.2   123  ARG123     -0.2867
     70  CB        84.5010   18.9580   63.4570 C.3   123  ARG123      0.0307
     71  CG        85.4750   19.6810   62.5380 C.3   123  ARG123      0.0489
     72  CD        84.7470   20.5240   61.4790 C.3   123  ARG123      0.2205
     73  NE        85.4940   21.7460   61.1570 N.pl3 123  ARG123     -0.0865
     74  CZ        86.6260   21.7790   60.4590 C.cat 123  ARG123      0.5346
     75  NH1       87.1560   20.6580   59.9940 N.pl3 123  ARG123      0.1354
     76  NH2       87.2360   22.9300   60.2400 N.pl3 123  ARG123      0.1354
@<TRIPOS>BOND
     1    17    16    1
     2    14    16   ar
     3    14    12   ar
     4    16    15   ar
     5    12    11   ar
     6    15    13   ar
     7    19    20    1
     8    19    18    1
     9    21    20    2
    10    11    13   ar
    11    11    10    1
    12    20    22   am
    13    18     8   am
    14    55    54    1
    15    56    54    1
    16     9     8    2
    17     8     7    1
    18    10     7    1
    19    54    51    1
    20    22    23    1
    21     7     6    1
    22    23    24    1
    23    23    26    1
    24    30    24   am
    25    30    31    1
    26    24    25    2
    27    31    32    1
    28    65    63   ar
    29    51    50    1
    30    51    52    1
    31    60    59    2
    32    49    47    1
    33     6     3   am
    34    50    45   am
    35    47    48    1
    36    47    44    1
    37    59    58    1
    38    28    26    1
    39    61    58    1
    40    61    62    1
    41    26    27    1
    42    32    33    2
    43    32    34   am
    44    63    64   ar
    45    63    62    1
    46    52    53    2
    47    45    44    1
    48    45    46    2
    49     3     4    2
    50     3     2    1
    51    44    43    1
    52    27    29    1
    53    43    36   am
    54    58    57    1
    55    34    35    1
    56     5     2    1
    57    75    74    1
    58    76    74    1
    59     2     1    1
    60    74    73    2
    61    36    35    1
    62    36    37    2
    63    39    40    1
    64    39    38    1
    65    42    41    1
    66    35    38    1
    67    73    72    1
    68    72    71    1
    69    40    41    1
    70    71    70    1
    71    70    67    1
    72    66    67    1
    73    67    68    1
    74    68    69    2
