@<TRIPOS>MOLECULE
tmp/1osnA01.pdb
 174 166 0 0 0
SMALL
GASTEIGER

@<TRIPOS>ATOM
      1  N         89.7340   24.6540   58.0890 N.3    14  TYR14      -0.1227
      2  CA        89.5760   23.5610   57.1280 C.3    14  TYR14       0.1736
      3  C         90.7460   23.4500   56.1510 C.2    14  TYR14       0.2596
      4  O         91.4580   24.4310   55.9060 O.2    14  TYR14      -0.2718
      5  CB        88.2500   23.7110   56.3560 C.3    14  TYR14       0.0548
      6  CG        88.1890   24.8270   55.3210 C.ar   14  TYR14      -0.0200
      7  CD1       88.8030   24.6900   54.0760 C.ar   14  TYR14      -0.0009
      8  CD2       87.4860   26.0050   55.5800 C.ar   14  TYR14      -0.0009
      9  CE1       88.7170   25.6970   53.1150 C.ar   14  TYR14       0.0417
     10  CE2       87.3940   27.0160   54.6280 C.ar   14  TYR14       0.0417
     11  CZ        88.0090   26.8600   53.3980 C.ar   14  TYR14       0.1957
     12  OH        87.9070   27.8690   52.4570 O.3    14  TYR14      -0.2866
     13  N         90.9380   22.2500   55.5980 N.am   15  GLY15      -0.1957
     14  CA        92.0290   22.0180   54.6640 C.3    15  GLY15       0.1869
     15  C         93.3840   21.9490   55.3580 C.2    15  GLY15       0.2309
     16  O         94.3750   21.5250   54.7590 O.2    15  GLY15      -0.2863
     17  N         93.6730   18.3610   59.6230 N.3    18  LYS18      -0.1231
     18  CA        93.3060   17.7930   60.9090 C.3    18  LYS18       0.1693
     19  C         92.6680   16.4210   60.7970 C.2    18  LYS18       0.2592
     20  O         92.2710   15.8310   61.7990 O.2    18  LYS18      -0.2718
     21  CB        92.3780   18.7460   61.6760 C.3    18  LYS18       0.0285
     22  CG        91.4500   19.5700   60.8180 C.3    18  LYS18       0.0035
     23  CD        90.3080   20.1250   61.6400 C.3    18  LYS18       0.0206
     24  CE        89.3730   19.0020   62.0670 C.3    18  LYS18       0.1093
     25  NZ        88.8980   18.2370   60.8810 N.3    18  LYS18      -0.1314
     26  N         92.5680   15.9050   59.5820 N.am   19  THR19      -0.1953
     27  CA        91.9840   14.5830   59.3980 C.3    19  THR19       0.1897
     28  C         93.0700   13.5430   59.0940 C.2    19  THR19       0.2313
     29  O         93.0640   12.4540   59.6740 O.2    19  THR19      -0.2863
     30  CB        90.9160   14.5760   58.2660 C.3    19  THR19       0.1794
     31  OG1       89.7850   15.3610   58.6690 O.3    19  THR19      -0.2208
     32  CG2       90.4440   13.1560   57.9810 C.3    19  THR19       0.0378
     33  N         84.1210   13.0870   60.0840 N.3    41  GLU41      -0.1245
     34  CA        83.1290   14.0510   59.6220 C.3    41  GLU41       0.1567
     35  C         82.1470   13.3070   58.7350 C.2    41  GLU41       0.2260
     36  O         82.5560   12.4780   57.9320 O.2    41  GLU41      -0.2867
     37  CB        83.8000   15.1830   58.8440 C.3    41  GLU41       0.0388
     38  CG        84.4800   16.2110   59.7470 C.3    41  GLU41       0.1160
     39  CD        84.9830   17.4280   58.9800 C.2    41  GLU41       0.3649
     40  OE1       85.4370   18.4030   59.6210 O.co2  41  GLU41      -0.2457
     41  OE2       84.9240   17.4050   57.7320 O.co2  41  GLU41      -0.2457
     42  N         80.5620   13.5760   55.8530 N.3    43  LEU43      -0.1245
     43  CA        80.4150   14.1440   54.5150 C.3    43  LEU43       0.1561
     44  C         79.2290   13.5320   53.8060 C.2    43  LEU43       0.2260
     45  O         78.4690   14.2380   53.1540 O.2    43  LEU43      -0.2867
     46  CB        81.6600   13.9010   53.6650 C.3    43  LEU43       0.0270
     47  CG        83.0240   14.1950   54.2810 C.3    43  LEU43       0.0019
     48  CD1       84.0760   14.0540   53.1900 C.3    43  LEU43       0.0001
     49  CD2       83.0620   15.5890   54.8850 C.3    43  LEU43       0.0001
     50  N         76.3410   15.5840   54.5930 N.3    46  TRP46      -0.1241
     51  CA        76.4510   16.9500   54.1500 C.3    46  TRP46       0.1605
     52  C         76.2660   16.9910   52.6510 C.2    46  TRP46       0.2264
     53  O         75.6050   17.8850   52.1390 O.2    46  TRP46      -0.2867
     54  CB        77.8180   17.5230   54.4930 C.3    46  TRP46       0.0550
     55  CG        78.0530   17.6890   55.9330 C.ar   46  TRP46       0.0003
     56  CD1       77.1170   17.7310   56.9250 C.ar   46  TRP46       0.0946
     57  CD2       79.3160   17.8670   56.5620 C.ar   46  TRP46       0.0152
     58  NE1       77.7250   17.9240   58.1420 N.ar   46  TRP46      -0.2442
     59  CE2       79.0770   18.0090   57.9460 C.ar   46  TRP46       0.0810
     60  CE3       80.6300   17.9230   56.0930 C.ar   46  TRP46       0.0012
     61  CZ2       80.1030   18.2000   58.8610 C.ar   46  TRP46       0.0191
     62  CZ3       81.6510   18.1180   57.0060 C.ar   46  TRP46       0.0001
     63  CH2       81.3840   18.2540   58.3740 C.ar   46  TRP46       0.0015
     64  N         77.7300   21.6110   51.2090 N.3    55  ILE55      -0.1245
     65  CA        78.9980   22.1580   50.7460 C.3    55  ILE55       0.1561
     66  C         78.9150   22.9380   49.4520 C.2    55  ILE55       0.2260
     67  O         79.2140   24.1350   49.4330 O.2    55  ILE55      -0.2867
     68  CB        80.0810   21.0730   50.6330 C.3    55  ILE55       0.0252
     69  CG1       80.5780   20.7220   52.0490 C.3    55  ILE55       0.0019
     70  CG2       81.2120   21.5600   49.7280 C.3    55  ILE55       0.0019
     71  CD1       81.8250   19.8470   52.1180 C.3    55  ILE55       0.0001
     72  N         76.9580   26.2000   49.8770 N.3    58  ILE58      -0.1231
     73  CA        77.5460   27.3080   50.5930 C.3    58  ILE58       0.1692
     74  C         78.5690   28.0090   49.7140 C.2    58  ILE58       0.2592
     75  O         78.7160   29.2190   49.7830 O.2    58  ILE58      -0.2718
     76  CB        78.2400   26.8690   51.8580 C.3    58  ILE58       0.0266
     77  CG1       78.5470   28.0940   52.7040 C.3    58  ILE58       0.0019
     78  CG2       79.5410   26.1710   51.5160 C.3    58  ILE58       0.0020
     79  CD1       78.3650   27.8500   54.1840 C.3    58  ILE58       0.0001
     80  N         79.2900   27.2640   48.8900 N.am   59  TYR59      -0.1976
     81  CA        80.2530   27.9170   48.0380 C.3    59  TYR59       0.1639
     82  C         79.5620   28.4570   46.8000 C.2    59  TYR59       0.2290
     83  O         79.6600   29.6440   46.5000 O.2    59  TYR59      -0.2864
     84  CB        81.3880   26.9590   47.6610 C.3    59  TYR59       0.0560
     85  CG        82.2910   26.6490   48.8290 C.ar   59  TYR59      -0.0198
     86  CD1       82.2920   25.3910   49.4160 C.ar   59  TYR59      -0.0009
     87  CD2       83.0900   27.6410   49.3990 C.ar   59  TYR59      -0.0009
     88  CE1       83.0620   25.1210   50.5570 C.ar   59  TYR59       0.0417
     89  CE2       83.8650   27.3880   50.5420 C.ar   59  TYR59       0.0417
     90  CZ        83.8420   26.1200   51.1220 C.ar   59  TYR59       0.1957
     91  OH        84.5540   25.8500   52.2820 O.3    59  TYR59      -0.2866
     92  N         74.6490   26.9360   55.3370 N.3    83  GLN83      -0.1245
     93  CA        75.4590   26.8100   56.5310 C.3    83  GLN83       0.1566
     94  C         74.7620   25.9530   57.5950 C.2    83  GLN83       0.2260
     95  O         75.3710   25.0650   58.1810 O.2    83  GLN83      -0.2867
     96  CB        75.7620   28.1920   57.0970 C.3    83  GLN83       0.0367
     97  CG        76.4000   28.1880   58.4780 C.3    83  GLN83       0.0905
     98  CD        77.5330   27.1910   58.6040 C.2    83  GLN83       0.2608
     99  OE1       78.2830   26.9530   57.6560 O.2    83  GLN83      -0.2717
    100  NE2       77.6700   26.6100   59.7860 N.am   83  GLN83      -0.0878
    101  N         74.8590   21.8400   57.8830 N.3    86  PHE86      -0.1241
    102  CA        75.9220   21.1320   58.5850 C.3    86  PHE86       0.1605
    103  C         75.5860   20.7270   60.0210 C.2    86  PHE86       0.2264
    104  O         76.1810   19.7890   60.5460 O.2    86  PHE86      -0.2867
    105  CB        77.1720   21.9960   58.6130 C.3    86  PHE86       0.0534
    106  CG        77.7950   22.2010   57.2730 C.ar   86  PHE86      -0.0203
    107  CD1       78.6370   21.2370   56.7420 C.ar   86  PHE86      -0.0042
    108  CD2       77.5540   23.3590   56.5410 C.ar   86  PHE86      -0.0042
    109  CE1       79.2400   21.4200   55.4980 C.ar   86  PHE86      -0.0003
    110  CE2       78.1520   23.5470   55.2970 C.ar   86  PHE86      -0.0003
    111  CZ        78.9980   22.5740   54.7760 C.ar   86  PHE86      -0.0000
    112  N         76.0730   16.2000   62.9350 N.3    90  HIS90      -0.1241
    113  CA        76.9040   16.3110   64.1160 C.3    90  HIS90       0.1621
    114  C         76.1190   16.3770   65.4130 C.2    90  HIS90       0.2264
    115  O         76.5890   15.9120   66.4460 O.2    90  HIS90      -0.2867
    116  CB        77.7840   17.5410   64.0030 C.3    90  HIS90       0.0745
    117  CG        79.2130   17.2150   63.7510 C.ar   90  HIS90       0.0817
    118  ND1       79.9460   16.4220   64.6060 N.ar   90  HIS90      -0.2268
    119  CD2       80.0410   17.5530   62.7380 C.ar   90  HIS90       0.1154
    120  CE1       81.1700   16.2870   64.1280 C.ar   90  HIS90       0.1986
    121  NE2       81.2540   16.9650   62.9950 N.ar   90  HIS90      -0.2212
    122  N         85.8890   17.2910   64.6250 N.3   123  ARG123     -0.1245
    123  CA        85.1090   18.5130   64.7920 C.3   123  ARG123      0.1563
    124  C         84.0160   18.3600   65.8400 C.2   123  ARG123      0.2260
    125  O         83.4560   17.2730   66.0250 O.2   123  ARG123     -0.2867
    126  CB        84.5010   18.9580   63.4570 C.3   123  ARG123      0.0307
    127  CG        85.4750   19.6810   62.5380 C.3   123  ARG123      0.0489
    128  CD        84.7470   20.5240   61.4790 C.3   123  ARG123      0.2205
    129  NE        85.4940   21.7460   61.1570 N.pl3 123  ARG123     -0.0865
    130  CZ        86.6260   21.7790   60.4590 C.cat 123  ARG123      0.5346
    131  NH1       87.1560   20.6580   59.9940 N.pl3 123  ARG123      0.1354
    132  NH2       87.2360   22.9300   60.2400 N.pl3 123  ARG123      0.1354
    133  N         81.3680   23.9180   65.8510 N.3   127  ALA127     -0.1231
    134  CA        81.9370   24.3500   64.5830 C.3   127  ALA127      0.1694
    135  C         80.8230   24.7560   63.6230 C.2   127  ALA127      0.2592
    136  O         80.9430   25.7380   62.9130 O.2   127  ALA127     -0.2718
    137  CB        82.7660   23.2430   63.9670 C.3   127  ALA127      0.0304
    138  N         79.7370   23.9980   63.6030 N.am  128  SER128     -0.1952
    139  CA        78.6230   24.3120   62.7230 C.3   128  SER128      0.1924
    140  C         77.7020   25.3500   63.3240 C.2   128  SER128      0.2314
    141  O         77.1980   26.2210   62.6180 O.2   128  SER128     -0.2863
    142  CB        77.7950   23.0660   62.4390 C.3   128  SER128      0.2116
    143  OG        77.1630   22.6010   63.6110 O.3   128  SER128     -0.2180
    144  N         81.8230   28.4910   62.3090 N.3   132  PHE132     -0.1241
    145  CA        81.5920   28.8820   60.9160 C.3   132  PHE132      0.1605
    146  C         80.5230   29.9460   60.7560 C.2   132  PHE132      0.2264
    147  O         80.8010   30.9990   60.1980 O.2   132  PHE132     -0.2867
    148  CB        81.2390   27.6810   60.0480 C.3   132  PHE132      0.0534
    149  CG        82.4350   26.8730   59.6070 C.ar  132  PHE132     -0.0203
    150  CD1       83.1440   26.0810   60.5030 C.ar  132  PHE132     -0.0042
    151  CD2       82.8540   26.9100   58.2920 C.ar  132  PHE132     -0.0042
    152  CE1       84.2460   25.3480   60.0870 C.ar  132  PHE132     -0.0003
    153  CE2       83.9610   26.1750   57.8720 C.ar  132  PHE132     -0.0003
    154  CZ        84.6520   25.3980   58.7710 C.ar  132  PHE132     -0.0000
    155  N         81.2100   33.4820   58.7590 N.3   136  ARG136     -0.1245
    156  CA        80.4610   33.9810   57.6180 C.3   136  ARG136      0.1563
    157  C         79.9350   35.3770   57.9040 C.2   136  ARG136      0.2260
    158  O         79.9960   36.2450   57.0540 O.2   136  ARG136     -0.2867
    159  CB        79.2840   33.0730   57.2960 C.3   136  ARG136      0.0307
    160  CG        79.6830   31.7230   56.7620 C.3   136  ARG136      0.0489
    161  CD        80.3610   31.8080   55.4100 C.3   136  ARG136      0.2205
    162  NE        80.8540   30.4990   55.0160 N.pl3 136  ARG136     -0.0865
    163  CZ        81.6490   30.2840   53.9810 C.cat 136  ARG136      0.5346
    164  NH1       82.0340   31.3100   53.2370 N.pl3 136  ARG136      0.1354
    165  NH2       82.0550   29.0490   53.6920 N.pl3 136  ARG136      0.1354
    166  N         84.9630   24.0470   46.7590 N.3   179  GLU179     -0.1245
    167  CA        85.8290   24.7520   47.7030 C.3   179  GLU179      0.1567
    168  C         86.4430   26.0080   47.0650 C.2   179  GLU179      0.2260
    169  O         86.4460   26.1400   45.8390 O.2   179  GLU179     -0.2867
    170  CB        86.9310   23.8070   48.1970 C.3   179  GLU179      0.0388
    171  CG        86.4570   22.3950   48.4670 C.3   179  GLU179      0.1160
    172  CD        85.9160   22.2390   49.8660 C.2   179  GLU179      0.3649
    173  OE1       86.3070   23.0380   50.7430 O.co2 179  GLU179     -0.2457
    174  OE2       85.1000   21.3190   50.0870 O.co2 179  GLU179     -0.2457
@<TRIPOS>BOND
     1   169   168    2
     2    83    82    2
     3   166   167    1
     4    82    81    1
     5   168   167    1
     6    84    81    1
     7    84    85    1
     8   167   170    1
     9    81    80    1
    10   170   171    1
    11   171   172    1
    12    85    87   ar
    13    85    86   ar
    14    80    74   am
    15    87    89   ar
    16    86    88   ar
    17    67    66    2
    18    66    65    1
    19    74    75    2
    20    74    73    1
    21    70    68    1
    22   172   174   ar
    23   172   173   ar
    24    72    73    1
    25    89    90   ar
    26    88    90   ar
    27    73    76    1
    28    68    65    1
    29    68    69    1
    30    65    64    1
    31    90    91    1
    32    78    76    1
    33    76    77    1
    34    69    71    1
    35    53    52    2
    36    12    11    1
    37    52    51    1
    38    77    79    1
    39     9    11   ar
    40     9     7   ar
    41    45    44    2
    42    48    47    1
    43   164   163    1
    44    11    10   ar
    45    46    47    1
    46    46    43    1
    47   165   163    1
    48    44    43    1
    49   163   162    2
    50     7     6   ar
    51    51    54    1
    52    51    50    1
    53    47    49    1
    54    54    55    1
    55    43    42    1
    56    10     8   ar
    57    14    15    1
    58    14    13    1
    59    16    15    2
    60   111   110   ar
    61   111   109   ar
    62   162   161    1
    63   110   108   ar
    64     6     8   ar
    65     6     5    1
    66    92    93    1
    67   161   160    1
    68   109   107   ar
    69    13     3   am
    70     4     3    2
    71    55    57   ar
    72    55    56   ar
    73    60    57   ar
    74    60    62   ar
    75     3     2    1
    76     5     2    1
    77    93    96    1
    78    93    94    1
    79   108   106   ar
    80    57    59   ar
    81   107   106   ar
    82   160   159    1
    83    56    58   ar
    84    62    63   ar
    85   158   157    2
    86    96    97    1
    87     2     1    1
    88   106   105    1
    89   159   156    1
    90    94    95    2
    91   156   157    1
    92   156   155    1
    93    99    98    2
    94    41    39   ar
    95   153   151   ar
    96   153   154   ar
    97   101   102    1
    98    36    35    2
    99    59    58   ar
   100    59    61   ar
   101    32    30    1
   102    30    31    1
   103    30    27    1
   104   151   149   ar
   105    63    61   ar
   106    97    98    1
   107   102   105    1
   108   102   103    1
   109    98   100   am
   110    35    34    1
   111   154   152   ar
   112    37    34    1
   113    37    38    1
   114    39    40   ar
   115    39    38    1
   116    28    27    1
   117    28    29    2
   118    27    26    1
   119    26    19   am
   120   149   148    1
   121   149   150   ar
   122    34    33    1
   123    17    18    1
   124   131   130    1
   125   103   104    2
   126   148   145    1
   127   152   150   ar
   128   147   146    2
   129   132   130    1
   130   130   129    2
   131   146   145    1
   132    19    18    1
   133    19    20    2
   134    22    23    1
   135    22    21    1
   136    25    24    1
   137    18    21    1
   138   145   144    1
   139   129   128    1
   140   128   127    1
   141    23    24    1
   142   142   139    1
   143   142   143    1
   144   127   126    1
   145   141   140    2
   146   139   140    1
   147   139   138    1
   148   119   121   ar
   149   119   117   ar
   150   136   135    2
   151   112   113    1
   152   121   120   ar
   153   126   123    1
   154   138   135   am
   155   135   134    1
   156   117   116    1
   157   117   118   ar
   158   137   134    1
   159   116   113    1
   160   113   114    1
   161   120   118   ar
   162   134   133    1
   163   122   123    1
   164   123   124    1
   165   114   115    2
   166   124   125    2
