@<TRIPOS>MOLECULE
tmp/1osvA00.pdb
 229 221 0 0 0
SMALL
GASTEIGER

@<TRIPOS>ATOM
      1  N         24.1940   37.4680   11.6150 N.3    23  MET23      -0.1245
      2  CA        23.1840   37.4610   10.5530 C.3    23  MET23       0.1570
      3  C         23.6630   38.0440    9.2280 C.2    23  MET23       0.2261
      4  O         24.3020   39.0970    9.1990 O.2    23  MET23      -0.2867
      5  CB        21.9380   38.2340   11.0020 C.3    23  MET23       0.0387
      6  CG        20.9490   37.4320   11.8380 C.3    23  MET23       0.0595
      7  SD        19.6670   36.6460   10.8430 S.3    23  MET23      -0.1393
      8  CE        18.6850   38.0860   10.4530 C.3    23  MET23       0.0692
      9  N         10.6820   38.4610    8.9440 N.3    45  LEU45      -0.1245
     10  CA        10.7760   37.9680   10.3090 C.3    45  LEU45       0.1561
     11  C         11.0120   36.4700   10.3370 C.2    45  LEU45       0.2260
     12  O         11.8430   35.9770   11.1060 O.2    45  LEU45      -0.2867
     13  CB         9.4870   38.2940   11.0660 C.3    45  LEU45       0.0270
     14  CG         9.4420   39.5680   11.9090 C.3    45  LEU45       0.0019
     15  CD1       10.4730   40.5750   11.4290 C.3    45  LEU45       0.0001
     16  CD2        8.0360   40.1360   11.8500 C.3    45  LEU45       0.0001
     17  N         14.6030   35.6240    8.9940 N.3    48  MET48      -0.1230
     18  CA        15.6460   35.8410    9.9770 C.3    48  MET48       0.1702
     19  C         15.6540   34.6940   10.9730 C.2    48  MET48       0.2592
     20  O         16.6890   34.0680   11.2130 O.2    48  MET48      -0.2718
     21  CB        15.4040   37.1370   10.7320 C.3    48  MET48       0.0401
     22  CG        15.1980   38.3450    9.8550 C.3    48  MET48       0.0596
     23  SD        14.9750   39.8140   10.8660 S.3    48  MET48      -0.1393
     24  CE        15.9250   40.9920    9.9780 C.3    48  MET48       0.0692
     25  N         14.4910   34.4240   11.5550 N.am   49  ALA49      -0.1980
     26  CA        14.3860   33.3590   12.5350 C.3    49  ALA49       0.1597
     27  C         14.9950   32.0810   11.9890 C.2    49  ALA49       0.2287
     28  O         15.6610   31.3500   12.7210 O.2    49  ALA49      -0.2864
     29  CB        12.9300   33.1330   12.9160 C.3    49  ALA49       0.0319
     30  N         18.7170   32.7740   12.3020 N.3    52  HIS52      -0.1241
     31  CA        19.0790   32.6340   13.7050 C.3    52  HIS52       0.1621
     32  C         19.2850   31.1730   14.0940 C.2    52  HIS52       0.2264
     33  O         20.2930   30.8210   14.6940 O.2    52  HIS52      -0.2867
     34  CB        18.0000   33.2650   14.5810 C.3    52  HIS52       0.0745
     35  CG        18.2990   33.2040   16.0460 C.ar   52  HIS52       0.0817
     36  ND1       18.1320   32.0590   16.7930 N.ar   52  HIS52      -0.2268
     37  CD2       18.7730   34.1440   16.8970 C.ar   52  HIS52       0.1154
     38  CE1       18.4900   32.2960   18.0420 C.ar   52  HIS52       0.1986
     39  NE2       18.8840   33.5540   18.1310 N.ar   52  HIS52      -0.2212
     40  N         22.6180   29.8780   12.7620 N.3    55  ILE55      -0.1245
     41  CA        23.7120   30.4480   13.5170 C.3    55  ILE55       0.1561
     42  C         23.7900   29.7510   14.8720 C.2    55  ILE55       0.2260
     43  O         24.8730   29.4040   15.3500 O.2    55  ILE55      -0.2867
     44  CB        23.4750   31.9530   13.7300 C.3    55  ILE55       0.0252
     45  CG1       23.7180   32.7000   12.4200 C.3    55  ILE55       0.0019
     46  CG2       24.3500   32.4680   14.8490 C.3    55  ILE55       0.0019
     47  CD1       23.3360   34.1840   12.4720 C.3    55  ILE55       0.0001
     48  N         16.1820   31.9610   21.1040 N.3    86  MET86      -0.1230
     49  CA        15.6660   33.0460   20.2800 C.3    86  MET86       0.1702
     50  C         15.1390   34.1470   21.1760 C.2    86  MET86       0.2592
     51  O         15.3570   35.3260   20.9080 O.2    86  MET86      -0.2718
     52  CB        14.5780   32.5020   19.3410 C.3    86  MET86       0.0401
     53  CG        13.9040   33.5290   18.4410 C.3    86  MET86       0.0596
     54  SD        12.5300   34.3400   19.2710 S.3    86  MET86      -0.1393
     55  CE        11.3910   32.9590   19.4070 C.3    86  MET86       0.0692
     56  N         14.4650   33.7740   22.2620 N.am   87  PHE87      -0.1976
     57  CA        13.9480   34.7850   23.1860 C.3    87  PHE87       0.1639
     58  C         15.0760   35.6140   23.7810 C.2    87  PHE87       0.2290
     59  O         14.9670   36.8400   23.8730 O.2    87  PHE87      -0.2864
     60  CB        13.1360   34.1480   24.3220 C.3    87  PHE87       0.0560
     61  CG        11.7750   33.6620   23.8990 C.ar   87  PHE87      -0.0200
     62  CD1       11.3020   32.4170   24.3100 C.ar   87  PHE87      -0.0042
     63  CD2       10.9730   34.4420   23.0660 C.ar   87  PHE87      -0.0042
     64  CE1       10.0490   31.9540   23.8910 C.ar   87  PHE87      -0.0003
     65  CE2        9.7230   33.9900   22.6420 C.ar   87  PHE87      -0.0003
     66  CZ         9.2590   32.7460   23.0530 C.ar   87  PHE87      -0.0000
     67  N         18.0490   36.2760   22.5040 N.3    89  ARG89      -0.1231
     68  CA        18.5420   37.1730   21.4520 C.3    89  ARG89       0.1694
     69  C         17.5650   38.3310   21.2760 C.2    89  ARG89       0.2592
     70  O         17.9760   39.4910   21.1730 O.2    89  ARG89      -0.2718
     71  CB        18.6680   36.4360   20.1170 C.3    89  ARG89       0.0321
     72  CG        20.0780   36.0240   19.7200 C.3    89  ARG89       0.0489
     73  CD        20.6840   36.9620   18.6710 C.3    89  ARG89       0.2205
     74  NE        21.1940   38.2070   19.2370 N.pl3  89  ARG89      -0.0865
     75  CZ        21.9230   39.0960   18.5650 C.cat  89  ARG89       0.5346
     76  NH1       22.3410   40.1990   19.1730 N.pl3  89  ARG89       0.1354
     77  NH2       22.2400   38.8870   17.2880 N.pl3  89  ARG89       0.1354
     78  N         16.2700   38.0120   21.2310 N.am   90  SER90      -0.1952
     79  CA        15.2300   39.0350   21.0740 C.3    90  SER90       0.1924
     80  C         15.4110   40.0460   22.2060 C.2    90  SER90       0.2314
     81  O         15.3550   41.2610   22.0090 O.2    90  SER90      -0.2863
     82  CB        13.8430   38.4010   21.1760 C.3    90  SER90       0.2116
     83  OG        13.7890   37.1310   20.5420 O.3    90  SER90      -0.2180
     84  N         18.7080   42.0390   21.6060 N.3    93  ILE93      -0.1231
     85  CA        18.4810   43.0030   20.5380 C.3    93  ILE93       0.1692
     86  C         17.6590   44.2120   20.9710 C.2    93  ILE93       0.2592
     87  O         18.0970   45.3540   20.8180 O.2    93  ILE93      -0.2718
     88  CB        17.7640   42.3560   19.3250 C.3    93  ILE93       0.0266
     89  CG1       18.7520   41.5380   18.4910 C.3    93  ILE93       0.0019
     90  CG2       17.1260   43.4420   18.4540 C.3    93  ILE93       0.0020
     91  CD1       19.7710   42.3850   17.7460 C.3    93  ILE93       0.0001
     92  N         16.4760   43.9630   21.5210 N.am   94  PHE94      -0.1976
     93  CA        15.5850   45.0470   21.9080 C.3    94  PHE94       0.1639
     94  C         16.0660   46.0540   22.9400 C.2    94  PHE94       0.2290
     95  O         16.2510   47.2230   22.6060 O.2    94  PHE94      -0.2864
     96  CB        14.2230   44.4650   22.2870 C.3    94  PHE94       0.0560
     97  CG        13.4840   43.9050   21.1060 C.ar   94  PHE94      -0.0200
     98  CD1       12.8640   42.6620   21.1670 C.ar   94  PHE94      -0.0042
     99  CD2       13.4580   44.6100   19.9040 C.ar   94  PHE94      -0.0042
    100  CE1       12.2330   42.1240   20.0400 C.ar   94  PHE94      -0.0003
    101  CE2       12.8340   44.0870   18.7760 C.ar   94  PHE94      -0.0003
    102  CZ        12.2200   42.8400   18.8440 C.ar   94  PHE94      -0.0000
    103  N         12.6350   47.1400   13.4210 N.3   106  LEU106     -0.1245
    104  CA        12.3050   45.7200   13.4480 C.3   106  LEU106      0.1561
    105  C         11.0640   45.5470   14.3110 C.2   106  LEU106      0.2260
    106  O         10.2170   44.6910   14.0400 O.2   106  LEU106     -0.2867
    107  CB        13.4510   44.9000   14.0440 C.3   106  LEU106      0.0270
    108  CG        13.0920   43.4480   14.3800 C.3   106  LEU106      0.0019
    109  CD1       12.6170   42.7280   13.1340 C.3   106  LEU106      0.0001
    110  CD2       14.2880   42.7420   14.9690 C.3   106  LEU106      0.0001
    111  N          7.3590   43.7070   13.4780 N.3   110  ILE110     -0.1245
    112  CA         6.7760   42.7340   14.3960 C.3   110  ILE110      0.1561
    113  C          5.3410   43.1410   14.7150 C.2   110  ILE110      0.2260
    114  O          4.4440   42.3000   14.7770 O.2   110  ILE110     -0.2867
    115  CB         7.5980   42.6290   15.6990 C.3   110  ILE110      0.0252
    116  CG1        9.0140   42.1490   15.3690 C.3   110  ILE110      0.0019
    117  CG2        6.9240   41.6660   16.6630 C.3   110  ILE110      0.0019
    118  CD1        9.8970   41.9580   16.5730 C.3   110  ILE110      0.0001
    119  N          2.1560   42.0050   11.7650 N.3   113  SER113     -0.1217
    120  CA         2.8860   41.1040   10.8890 C.3   113  SER113      0.1889
    121  C          2.0720   39.8310   10.9980 C.2   113  SER113      0.2288
    122  O          2.5420   38.7410   10.6790 O.2   113  SER113     -0.2866
    123  CB         4.3020   40.8510   11.4050 C.3   113  SER113      0.2089
    124  OG         4.3040   39.8890   12.4450 O.3   113  SER113     -0.2183
    125  N          0.5900   39.1130   13.9560 N.3   115  ILE115     -0.1245
    126  CA         0.7480   38.6820   15.3360 C.3   115  ILE115      0.1561
    127  C         -0.1780   39.4460   16.2940 C.2   115  ILE115      0.2260
    128  O         -0.1970   40.6800   16.3190 O.2   115  ILE115     -0.2867
    129  CB         2.2440   38.8320   15.7510 C.3   115  ILE115      0.0252
    130  CG1        2.5930   37.8580   16.8750 C.3   115  ILE115      0.0019
    131  CG2        2.5420   40.2690   16.1320 C.3   115  ILE115      0.0019
    132  CD1        1.9050   38.1260   18.1870 C.3   115  ILE115      0.0001
    133  N         -0.2610   39.2280   22.2610 N.3   119  TYR119     -0.1227
    134  CA         0.9110   38.3860   22.4550 C.3   119  TYR119      0.1736
    135  C          2.1520   39.2730   22.5150 C.2   119  TYR119      0.2595
    136  O          3.0080   39.0990   23.3780 O.2   119  TYR119     -0.2718
    137  CB         1.0470   37.3940   21.3020 C.3   119  TYR119      0.0548
    138  CG         2.2260   36.4500   21.4340 C.ar  119  TYR119     -0.0200
    139  CD1        2.0330   35.1050   21.7380 C.ar  119  TYR119     -0.0009
    140  CD2        3.5390   36.8990   21.2400 C.ar  119  TYR119     -0.0009
    141  CE1        3.1160   34.2240   21.8460 C.ar  119  TYR119      0.0417
    142  CE2        4.6260   36.0270   21.3440 C.ar  119  TYR119      0.0417
    143  CZ         4.4070   34.6910   21.6450 C.ar  119  TYR119      0.1957
    144  OH         5.4710   33.8170   21.7350 O.3   119  TYR119     -0.2866
    145  N          2.2390   40.2290   21.5970 N.am  120  ILE120     -0.1980
    146  CA         3.3880   41.1220   21.5480 C.3   120  ILE120      0.1595
    147  C          3.5080   41.9820   22.7960 C.2   120  ILE120      0.2287
    148  O          4.6080   42.3440   23.2000 O.2   120  ILE120     -0.2864
    149  CB         3.3300   42.0620   20.3150 C.3   120  ILE120      0.0276
    150  CG1        2.2720   43.1440   20.5210 C.3   120  ILE120      0.0022
    151  CG2        2.9900   41.2640   19.0730 C.3   120  ILE120      0.0022
    152  CD1        2.1330   44.1030   19.3460 C.3   120  ILE120      0.0001
    153  N          5.0480   39.8060   25.7400 N.3   123  MET123     -0.1230
    154  CA         6.3550   39.4240   25.2290 C.3   123  MET123      0.1702
    155  C          7.3080   40.6130   25.3800 C.2   123  MET123      0.2592
    156  O          8.3440   40.5130   26.0380 O.2   123  MET123     -0.2718
    157  CB         6.2250   39.0300   23.7600 C.3   123  MET123      0.0401
    158  CG         7.2850   38.0710   23.2630 C.3   123  MET123      0.0596
    159  SD         7.2840   36.4990   24.1510 S.3   123  MET123     -0.1393
    160  CE         8.8760   36.6310   25.0030 C.3   123  MET123      0.0692
    161  N          6.9470   41.7430   24.7760 N.am  124  PHE124     -0.1976
    162  CA         7.7680   42.9430   24.8640 C.3   124  PHE124      0.1639
    163  C          7.8460   43.4630   26.2800 C.2   124  PHE124      0.2290
    164  O          8.6850   44.3030   26.5920 O.2   124  PHE124     -0.2864
    165  CB         7.2260   44.0490   23.9720 C.3   124  PHE124      0.0560
    166  CG         7.6320   43.9160   22.5370 C.ar  124  PHE124     -0.0200
    167  CD1        6.7320   43.4560   21.5850 C.ar  124  PHE124     -0.0042
    168  CD2        8.9430   44.2400   22.1350 C.ar  124  PHE124     -0.0042
    169  CE1        7.1260   43.3180   20.2430 C.ar  124  PHE124     -0.0003
    170  CE2        9.3510   44.1010   20.7970 C.ar  124  PHE124     -0.0003
    171  CZ         8.4430   43.6410   19.8490 C.ar  124  PHE124     -0.0000
    172  N         10.8710   41.3160   27.5830 N.3   127  TYR127     -0.1241
    173  CA        12.1270   41.8720   27.0880 C.3   127  TYR127      0.1605
    174  C         12.4950   43.1540   27.8480 C.2   127  TYR127      0.2264
    175  O         13.6650   43.3930   28.1480 O.2   127  TYR127     -0.2867
    176  CB        12.0230   42.1610   25.5790 C.3   127  TYR127      0.0534
    177  CG        11.7060   40.9450   24.7160 C.ar  127  TYR127     -0.0201
    178  CD1       10.9810   41.0750   23.5220 C.ar  127  TYR127     -0.0009
    179  CD2       12.1460   39.6740   25.0780 C.ar  127  TYR127     -0.0009
    180  CE1       10.7050   39.9630   22.7170 C.ar  127  TYR127      0.0417
    181  CE2       11.8780   38.5620   24.2800 C.ar  127  TYR127      0.0417
    182  CZ        11.1550   38.7150   23.1020 C.ar  127  TYR127      0.1957
    183  OH        10.8750   37.6140   22.3210 O.3   127  TYR127     -0.2866
    184  N          4.2950   30.5340   22.8720 N.3   205  HIS205     -0.1241
    185  CA         4.8460   30.5950   21.5210 C.3   205  HIS205      0.1621
    186  C          4.3210   29.4540   20.6770 C.2   205  HIS205      0.2264
    187  O          3.9150   29.6510   19.5370 O.2   205  HIS205     -0.2867
    188  CB         6.3800   30.5500   21.5820 C.3   205  HIS205      0.0745
    189  CG         7.0390   30.2830   20.2620 C.ar  205  HIS205      0.0817
    190  ND1        7.5920   31.2840   19.4910 N.ar  205  HIS205     -0.2268
    191  CD2        7.2460   29.1280   19.5860 C.ar  205  HIS205      0.1154
    192  CE1        8.1110   30.7570   18.3960 C.ar  205  HIS205      0.1986
    193  NE2        7.9140   29.4500   18.4300 N.ar  205  HIS205     -0.2212
    194  N          0.6030   30.3640   19.9520 N.3   208  MET208     -0.1245
    195  CA         0.3750   31.5020   19.0740 C.3   208  MET208      0.1570
    196  C          0.6240   31.1110   17.6270 C.2   208  MET208      0.2261
    197  O          0.0420   31.6890   16.7090 O.2   208  MET208     -0.2867
    198  CB         1.2880   32.6650   19.4520 C.3   208  MET208      0.0387
    199  CG         2.6890   32.5700   18.8800 C.3   208  MET208      0.0595
    200  SD         2.7540   32.9770   17.1310 S.3   208  MET208     -0.1393
    201  CE         2.9930   34.7310   17.2310 C.3   208  MET208      0.0692
    202  N         -1.2520   31.4810   13.6510 N.3   212  TRP212     -0.1241
    203  CA        -0.6630   32.7180   13.1790 C.3   212  TRP212      0.1605
    204  C         -0.9470   32.8560   11.7320 C.2   212  TRP212      0.2264
    205  O         -0.2010   32.3470   10.8870 O.2   212  TRP212     -0.2867
    206  CB         0.7840   32.8070   13.5980 C.3   212  TRP212      0.0550
    207  CG         1.5950   33.9440   13.0710 C.ar  212  TRP212      0.0003
    208  CD1        1.2480   35.0330   12.3520 C.ar  212  TRP212      0.0946
    209  CD2        3.0190   34.0430   13.2650 C.ar  212  TRP212      0.0152
    210  NE1        2.3620   35.8070   12.0740 N.ar  212  TRP212     -0.2442
    211  CE2        3.4630   35.2030   12.6210 C.ar  212  TRP212      0.0810
    212  CE3        3.9620   33.2380   13.9180 C.ar  212  TRP212      0.0012
    213  CZ2        4.8090   35.5800   12.5830 C.ar  212  TRP212      0.0191
    214  CZ3        5.3000   33.6140   13.9100 C.ar  212  TRP212      0.0001
    215  CH2        5.7090   34.7750   13.2300 C.ar  212  TRP212      0.0015
    216  N         10.1680   24.6600   15.2160 N.3   227  TRP227     -0.1241
    217  CA         9.0750   25.2910   15.9350 C.3   227  TRP227      0.1605
    218  C          7.9060   24.3090   15.9960 C.2   227  TRP227      0.2264
    219  O          6.8340   24.6170   16.5210 O.2   227  TRP227     -0.2867
    220  CB         8.6730   26.5940   15.2400 C.3   227  TRP227      0.0550
    221  CG         9.6440   27.6990   15.5220 C.ar  227  TRP227      0.0003
    222  CD1       10.8280   27.5900   16.1980 C.ar  227  TRP227      0.0946
    223  CD2        9.5000   29.0920   15.1890 C.ar  227  TRP227      0.0152
    224  NE1       11.4210   28.8240   16.3140 N.ar  227  TRP227     -0.2442
    225  CE2       10.6320   29.7640   15.7060 C.ar  227  TRP227      0.0810
    226  CE3        8.5270   29.8350   14.5080 C.ar  227  TRP227      0.0012
    227  CZ2       10.8190   31.1460   15.5660 C.ar  227  TRP227      0.0191
    228  CZ3        8.7150   31.2230   14.3650 C.ar  227  TRP227      0.0001
    229  CH2        9.8560   31.8570   14.8970 C.ar  227  TRP227      0.0015
@<TRIPOS>BOND
     1     9    10    1
     2    17    18    1
     3     4     3    2
     4     3     2    1
     5    22    21    1
     6    22    23    1
     7    18    21    1
     8    18    19    1
     9    24    23    1
    10    10    11    1
    11    10    13    1
    12    11    12    2
    13     8     7    1
    14     2     5    1
    15     2     1    1
    16   122   121    2
    17     7     6    1
    18   205   204    2
    19   120   121    1
    20   120   123    1
    21   120   119    1
    22    19    20    2
    23    19    25   am
    24     5     6    1
    25    13    14    1
    26   123   124    1
    27    15    14    1
    28    25    26    1
    29   204   203    1
    30    16    14    1
    31    27    26    1
    32    27    28    2
    33   210   208   ar
    34   210   211   ar
    35    30    31    1
    36   208   207   ar
    37    45    47    1
    38    45    44    1
    39    26    29    1
    40   213   211   ar
    41   213   215   ar
    42   211   209   ar
    43    40    41    1
    44   207   209   ar
    45   207   206    1
    46   109   108    1
    47   203   206    1
    48   203   202    1
    49   215   214   ar
    50   209   212   ar
    51   103   104    1
    52   104   107    1
    53   104   105    1
    54   111   112    1
    55    41    44    1
    56    41    42    1
    57    31    32    1
    58    31    34    1
    59    44    46    1
    60   214   212   ar
    61   125   126    1
    62   106   105    2
    63   107   108    1
    64    32    33    2
    65   228   226   ar
    66   228   229   ar
    67   108   110    1
    68   112   113    1
    69   112   115    1
    70   226   223   ar
    71    34    35    1
    72   113   114    2
    73    42    43    2
    74   229   227   ar
    75   223   221   ar
    76   223   225   ar
    77   216   217    1
    78   220   221    1
    79   220   217    1
    80   126   129    1
    81   126   127    1
    82   116   115    1
    83   116   118    1
    84   221   222   ar
    85   227   225   ar
    86   115   117    1
    87   225   224   ar
    88   129   131    1
    89   129   130    1
    90   217   218    1
    91   218   219    2
    92    35    36   ar
    93    35    37   ar
    94   222   224   ar
    95   127   128    2
    96   197   196    2
    97    36    38   ar
    98   130   132    1
    99    37    39   ar
   100   200   201    1
   101   200   199    1
   102    77    75    1
   103   196   195    1
   104    91    89    1
   105    38    39   ar
   106   192   193   ar
   107   192   190   ar
   108   193   191   ar
   109    53    54    1
   110    53    52    1
   111    90    88    1
   112    89    88    1
   113    75    76    1
   114    75    74    2
   115    73    74    1
   116    73    72    1
   117   101   102   ar
   118   101    99   ar
   119   102   100   ar
   120   199   198    1
   121   151   149    1
   122   195   198    1
   123   195   194    1
   124    54    55    1
   125    88    85    1
   126    52    49    1
   127   152   150    1
   128   190   189   ar
   129   187   186    2
   130   191   189   ar
   131    72    71    1
   132   171   169   ar
   133   171   170   ar
   134    99    97   ar
   135   100    98   ar
   136    71    68    1
   137   169   167   ar
   138   189   188    1
   139    49    48    1
   140    49    50    1
   141   149   150    1
   142   149   146    1
   143    85    86    1
   144    85    84    1
   145    83    82    1
   146   186   185    1
   147   170   168   ar
   148    87    86    2
   149    51    50    2
   150    86    92   am
   151    79    82    1
   152    79    78    1
   153    79    80    1
   154    97    98   ar
   155    97    96    1
   156    70    69    2
   157    50    56   am
   158    78    69   am
   159   140   142   ar
   160   140   138   ar
   161    69    68    1
   162   137   138    1
   163   137   134    1
   164   142   143   ar
   165   138   139   ar
   166    68    67    1
   167   185   188    1
   168   185   184    1
   169    92    93    1
   170   146   145    1
   171   146   147    1
   172   167   166   ar
   173   145   135   am
   174   143   144    1
   175   143   141   ar
   176   139   141   ar
   177    93    96    1
   178    93    94    1
   179    81    80    2
   180   168   166   ar
   181   133   134    1
   182    56    57    1
   183   183   182    1
   184   134   135    1
   185   135   136    2
   186   166   165    1
   187    95    94    2
   188    65    66   ar
   189    65    63   ar
   190   180   182   ar
   191   180   178   ar
   192   147   148    2
   193    66    64   ar
   194    63    61   ar
   195   182   181   ar
   196    57    58    1
   197    57    60    1
   198   158   157    1
   199   158   159    1
   200   178   177   ar
   201   157   154    1
   202    58    59    2
   203    64    62   ar
   204    61    62   ar
   205    61    60    1
   206   165   162    1
   207   159   160    1
   208   181   179   ar
   209   177   179   ar
   210   177   176    1
   211   161   162    1
   212   161   155   am
   213   162   163    1
   214   154   155    1
   215   154   153    1
   216   155   156    2
   217   176   173    1
   218   163   164    2
   219   173   172    1
   220   173   174    1
   221   174   175    2
