@<TRIPOS>MOLECULE
tmp/1ot1A07.pdb
 99 94 0 0 0
SMALL
GASTEIGER

@<TRIPOS>ATOM
      1  N         55.8270   74.6840   46.7150 N.3   236  PHE236     -0.1227
      2  CA        56.0330   74.3600   45.3140 C.3   236  PHE236      0.1736
      3  C         56.2550   72.8640   45.1130 C.2   236  PHE236      0.2596
      4  O         55.7560   72.2830   44.1520 O.2   236  PHE236     -0.2718
      5  CB        57.2070   75.1690   44.7520 C.3   236  PHE236      0.0547
      6  CG        57.0560   76.6620   44.9250 C.ar  236  PHE236     -0.0202
      7  CD1       55.7930   77.2420   45.0440 C.ar  236  PHE236     -0.0042
      8  CD2       58.1740   77.4870   44.9570 C.ar  236  PHE236     -0.0042
      9  CE1       55.6480   78.6230   45.1950 C.ar  236  PHE236     -0.0003
     10  CE2       58.0390   78.8720   45.1060 C.ar  236  PHE236     -0.0003
     11  CZ        56.7720   79.4370   45.2250 C.ar  236  PHE236     -0.0000
     12  N         56.9880   72.2440   46.0320 N.am  237  GLY237     -0.1957
     13  CA        57.2400   70.8160   45.9450 C.3   237  GLY237      0.1869
     14  C         55.9640   69.9990   46.0600 C.2   237  GLY237      0.2309
     15  O         55.7770   69.0170   45.3370 O.2   237  GLY237     -0.2863
     16  N         54.0850   70.1960   42.8560 N.3   240  LYS240     -0.1245
     17  CA        54.6500   69.3480   41.8140 C.3   240  LYS240      0.1561
     18  C         54.1300   67.9220   42.0010 C.2   240  LYS240      0.2260
     19  O         53.8020   67.2460   41.0280 O.2   240  LYS240     -0.2867
     20  CB        56.1830   69.3540   41.8700 C.3   240  LYS240      0.0271
     21  CG        56.8320   68.3320   40.9340 C.3   240  LYS240      0.0035
     22  CD        58.3570   68.4390   40.9370 C.3   240  LYS240      0.0206
     23  CE        58.9920   67.3350   40.0980 C.3   240  LYS240      0.1093
     24  NZ        60.4800   67.4630   40.0220 N.3   240  LYS240     -0.1314
     25  N         60.7290   79.9170   37.1830 N.3   271  LYS271     -0.1231
     26  CA        61.1310   78.5820   37.6000 C.3   271  LYS271      0.1693
     27  C         59.9160   77.7160   37.9200 C.2   271  LYS271      0.2592
     28  O         59.8770   76.5390   37.5610 O.2   271  LYS271     -0.2718
     29  CB        62.0580   78.6550   38.8180 C.3   271  LYS271      0.0285
     30  CG        62.5480   77.2910   39.2770 C.3   271  LYS271      0.0035
     31  CD        63.7330   77.4050   40.2230 C.3   271  LYS271      0.0206
     32  CE        64.2890   76.0260   40.5520 C.3   271  LYS271      0.1093
     33  NZ        65.6160   76.1090   41.2070 N.3   271  LYS271     -0.1314
     34  N         58.9260   78.2960   38.5920 N.am  272  PHE272     -0.1976
     35  CA        57.7150   77.5520   38.9290 C.3   272  PHE272      0.1639
     36  C         57.0240   77.0530   37.6570 C.2   272  PHE272      0.2290
     37  O         56.6810   75.8710   37.5400 O.2   272  PHE272     -0.2864
     38  CB        56.7450   78.4340   39.7170 C.3   272  PHE272      0.0560
     39  CG        55.5400   77.6970   40.2310 C.ar  272  PHE272     -0.0200
     40  CD1       55.6010   76.9810   41.4250 C.ar  272  PHE272     -0.0042
     41  CD2       54.3500   77.6940   39.5060 C.ar  272  PHE272     -0.0042
     42  CE1       54.4910   76.2690   41.8920 C.ar  272  PHE272     -0.0003
     43  CE2       53.2340   76.9860   39.9610 C.ar  272  PHE272     -0.0003
     44  CZ        53.3050   76.2730   41.1560 C.ar  272  PHE272     -0.0000
     45  N         59.2110   74.2790   36.0040 N.3   275  GLU275     -0.1231
     46  CA        59.4780   73.0030   36.6650 C.3   275  GLU275      0.1699
     47  C         58.3810   72.3810   37.5310 C.2   275  GLU275      0.2592
     48  O         58.5370   71.2550   37.9980 O.2   275  GLU275     -0.2718
     49  CB        60.7490   73.1430   37.5070 C.3   275  GLU275      0.0402
     50  CG        61.9810   73.5130   36.6950 C.3   275  GLU275      0.1161
     51  CD        63.2220   73.6800   37.5530 C.2   275  GLU275      0.3649
     52  OE1       63.4300   72.8540   38.4660 O.co2 275  GLU275     -0.2457
     53  OE2       63.9950   74.6300   37.3050 O.co2 275  GLU275     -0.2457
     54  N         57.2750   73.0880   37.7360 N.am  276  SER276     -0.1952
     55  CA        56.2150   72.5880   38.6120 C.3   276  SER276      0.1924
     56  C         55.2860   71.5430   38.0020 C.2   276  SER276      0.2314
     57  O         54.7190   70.7210   38.7160 O.2   276  SER276     -0.2863
     58  CB        55.3610   73.7500   39.1140 C.3   276  SER276      0.2116
     59  OG        54.5570   74.2530   38.0630 O.3   276  SER276     -0.2180
     60  N         64.5480   63.7600   40.6860 N.3   612  GLU612     -0.1245
     61  CA        63.7010   64.6630   41.4570 C.3   612  GLU612      0.1567
     62  C         64.5380   65.5080   42.4220 C.2   612  GLU612      0.2260
     63  O         64.0840   66.5470   42.9150 O.2   612  GLU612     -0.2867
     64  CB        62.6360   63.8700   42.2270 C.3   612  GLU612      0.0388
     65  CG        61.4880   63.3440   41.3470 C.3   612  GLU612      0.1160
     66  CD        61.7930   62.0170   40.6530 C.2   612  GLU612      0.3649
     67  OE1       62.9670   61.5970   40.6290 O.co2 612  GLU612     -0.2457
     68  OE2       60.8460   61.3950   40.1200 O.co2 612  GLU612     -0.2457
     69  N         67.6380   71.3220   45.0290 N.3   622  ILE622     -0.1231
     70  CA        66.3370   71.8230   45.4540 C.3   622  ILE622      0.1692
     71  C         66.4830   72.9570   46.4660 C.2   622  ILE622      0.2592
     72  O         67.1760   72.8230   47.4740 O.2   622  ILE622     -0.2718
     73  CB        65.4910   70.6920   46.0880 C.3   622  ILE622      0.0266
     74  CG1       65.4160   69.4940   45.1340 C.3   622  ILE622      0.0019
     75  CG2       64.0970   71.2030   46.4160 C.3   622  ILE622      0.0020
     76  CD1       64.8290   69.8140   43.7690 C.3   622  ILE622      0.0001
     77  N         65.8260   74.0760   46.1910 N.am  623  GLY623     -0.1957
     78  CA        65.9040   75.2090   47.0930 C.3   623  GLY623      0.1869
     79  C         65.9050   76.5330   46.3520 C.2   623  GLY623      0.2309
     80  O         65.5430   76.5790   45.1760 O.2   623  GLY623     -0.2863
     81  N         62.1750   72.2090   53.6350 N.3   638  TYR638     -0.1241
     82  CA        61.6000   72.3660   52.3080 C.3   638  TYR638      0.1605
     83  C         60.7730   71.1360   51.9590 C.2   638  TYR638      0.2264
     84  O         61.1210   70.0190   52.3460 O.2   638  TYR638     -0.2867
     85  CB        62.7010   72.5600   51.2650 C.3   638  TYR638      0.0534
     86  CG        62.2800   73.4470   50.1150 C.ar  638  TYR638     -0.0201
     87  CD1       62.0940   74.8160   50.3030 C.ar  638  TYR638     -0.0009
     88  CD2       62.0520   72.9200   48.8440 C.ar  638  TYR638     -0.0009
     89  CE1       61.6920   75.6420   49.2570 C.ar  638  TYR638      0.0417
     90  CE2       61.6460   73.7370   47.7870 C.ar  638  TYR638      0.0417
     91  CZ        61.4690   75.0960   48.0030 C.ar  638  TYR638      0.1957
     92  OH        61.0650   75.9080   46.9720 O.3   638  TYR638     -0.2866
     93  N         59.3850   68.6060   49.1660 N.3   640  VAL640     -0.1245
     94  CA        59.8560   68.1330   47.8710 C.3   640  VAL640      0.1561
     95  C         59.0910   66.9420   47.3050 C.2   640  VAL640      0.2260
     96  O         58.7360   66.0120   48.0310 O.2   640  VAL640     -0.2867
     97  CB        61.3500   67.7300   47.9800 C.3   640  VAL640      0.0252
     98  CG1       61.9510   67.5330   46.5950 C.3   640  VAL640      0.0019
     99  CG2       62.1150   68.7870   48.7750 C.3   640  VAL640      0.0019
@<TRIPOS>BOND
     1    45    46    1
     2    46    49    1
     3    46    47    1
     4    50    49    1
     5    50    51    1
     6    25    26    1
     7    53    51   ar
     8    47    54   am
     9    47    48    2
    10    37    36    2
    11    51    52   ar
    12    28    27    2
    13    26    27    1
    14    26    29    1
    15    36    35    1
    16    54    55    1
    17    27    34   am
    18    56    55    1
    19    56    57    2
    20    59    58    1
    21    34    35    1
    22    55    58    1
    23    29    30    1
    24    35    38    1
    25    30    31    1
    26    41    43   ar
    27    41    39   ar
    28    38    39    1
    29    43    44   ar
    30    24    23    1
    31    23    22    1
    32    68    66   ar
    33    31    32    1
    34    39    40   ar
    35    32    33    1
    36    67    66   ar
    37    66    65    1
    38    60    61    1
    39    21    22    1
    40    21    20    1
    41    19    18    2
    42    44    42   ar
    43    65    64    1
    44    40    42   ar
    45    61    64    1
    46    61    62    1
    47    17    20    1
    48    17    18    1
    49    17    16    1
    50    62    63    2
    51    76    74    1
    52     4     3    2
    53     5     6    1
    54     5     2    1
    55     6     8   ar
    56     6     7   ar
    57     8    10   ar
    58    69    70    1
    59     7     9   ar
    60    10    11   ar
    61     3     2    1
    62     3    12   am
    63    74    73    1
    64    80    79    2
    65     9    11   ar
    66     2     1    1
    67    15    14    2
    68    70    73    1
    69    70    71    1
    70    13    12    1
    71    13    14    1
    72    73    75    1
    73    77    71   am
    74    77    78    1
    75    79    78    1
    76    71    72    2
    77    98    97    1
    78    92    91    1
    79    95    94    1
    80    95    96    2
    81    90    91   ar
    82    90    88   ar
    83    94    97    1
    84    94    93    1
    85    97    99    1
    86    91    89   ar
    87    88    86   ar
    88    89    87   ar
    89    86    87   ar
    90    86    85    1
    91    85    82    1
    92    83    82    1
    93    83    84    2
    94    82    81    1
