@<TRIPOS>MOLECULE
tmp/1othA00.pdb
 174 166 0 0 0
SMALL
GASTEIGER

@<TRIPOS>ATOM
      1  N          2.5580   -3.3270  -13.9230 N.3    55  LYS55      -0.1231
      2  CA         2.2940   -1.9110  -14.1550 C.3    55  LYS55       0.1693
      3  C          0.8000   -1.7200  -14.3370 C.2    55  LYS55       0.2592
      4  O          0.0880   -2.6760  -14.6340 O.2    55  LYS55      -0.2718
      5  CB         2.9970   -1.4180  -15.4290 C.3    55  LYS55       0.0285
      6  CG         4.5080   -1.3430  -15.3790 C.3    55  LYS55       0.0035
      7  CD         5.0000   -1.2070  -16.7940 C.3    55  LYS55       0.0206
      8  CE         6.4960   -0.9930  -16.7470 C.3    55  LYS55       0.1093
      9  NZ         7.0890   -1.0820  -18.0680 N.3    55  LYS55      -0.1314
     10  N          0.3130   -0.4900  -14.1630 N.am   56  ARG56      -0.1966
     11  CA        -1.0900   -0.1560  -14.3660 C.3    56  ARG56       0.1729
     12  C         -1.5200   -0.3330  -15.8130 C.2    56  ARG56       0.2617
     13  O         -0.6970   -0.3250  -16.7310 O.2    56  ARG56      -0.2715
     14  CB        -1.3620    1.2830  -13.9750 C.3    56  ARG56       0.0348
     15  CG        -1.4270    1.4890  -12.4860 C.3    56  ARG56       0.0492
     16  CD        -1.6160    2.9640  -12.2180 C.3    56  ARG56       0.2205
     17  NE        -1.3100    3.2110  -10.8180 N.pl3  56  ARG56      -0.0865
     18  CZ        -2.2430    3.6210   -9.9650 C.cat  56  ARG56       0.5346
     19  NH1       -3.4910    3.8290  -10.3770 N.pl3  56  ARG56       0.1354
     20  NH2       -1.9350    3.7800   -8.6810 N.pl3  56  ARG56       0.1354
     21  N         -2.8310   -0.5020  -15.9910 N.am   57  SER57      -0.1936
     22  CA        -3.4190   -0.6750  -17.3040 C.3    57  SER57       0.2055
     23  C         -4.9280   -0.4920  -17.2590 C.2    57  SER57       0.2644
     24  O         -5.5710   -0.9600  -16.3150 O.2    57  SER57      -0.2714
     25  CB        -3.0960   -2.0680  -17.8180 C.3    57  SER57       0.2130
     26  OG        -3.7770   -2.3750  -19.0190 O.3    57  SER57      -0.2179
     27  N         -5.4980    0.2180  -18.2440 N.am   58  THR58      -0.1936
     28  CA        -6.9450    0.3000  -18.4000 C.3    58  THR58       0.2028
     29  C         -7.3040   -0.4690  -19.6670 C.2    58  THR58       0.2642
     30  O         -8.0700   -1.4340  -19.5960 O.2    58  THR58      -0.2714
     31  CB        -7.4490    1.7580  -18.5410 C.3    58  THR58       0.1808
     32  OG1       -7.1190    2.4200  -17.3380 O.3    58  THR58      -0.2208
     33  CG2       -8.9620    1.8620  -18.7420 C.3    58  THR58       0.0379
     34  N         -6.7520   -0.0970  -20.8340 N.am   59  ARG59      -0.1963
     35  CA        -7.0370   -0.7650  -22.1030 C.3    59  ARG59       0.1729
     36  C         -6.5180   -2.1830  -22.2800 C.2    59  ARG59       0.2616
     37  O         -7.2890   -3.0380  -22.7210 O.2    59  ARG59      -0.2715
     38  CB        -6.5040    0.0700  -23.2750 C.3    59  ARG59       0.0348
     39  CG        -7.4070    1.2650  -23.5950 C.3    59  ARG59       0.0492
     40  CD        -6.5910    2.5310  -23.8260 C.3    59  ARG59       0.2205
     41  NE        -5.9200    2.9090  -22.5940 N.pl3  59  ARG59      -0.0865
     42  CZ        -6.2710    3.9450  -21.8320 C.cat  59  ARG59       0.5346
     43  NH1       -7.2840    4.7570  -22.1340 N.pl3  59  ARG59       0.1354
     44  NH2       -5.5870    4.1430  -20.7170 N.pl3  59  ARG59       0.1354
     45  N         -5.2460   -2.4790  -21.9550 N.am   60  THR60      -0.1951
     46  CA        -4.6970   -3.8230  -22.1130 C.3    60  THR60       0.1897
     47  C         -5.4530   -4.7500  -21.1730 C.2    60  THR60       0.2313
     48  O         -5.8450   -5.8340  -21.5780 O.2    60  THR60      -0.2863
     49  CB        -3.1770   -3.8940  -21.7710 C.3    60  THR60       0.1794
     50  OG1       -2.5240   -2.9530  -22.6140 O.3    60  THR60      -0.2208
     51  CG2       -2.5590   -5.2720  -22.0090 C.3    60  THR60       0.0378
     52  N          2.4720   -7.8650  -18.5850 N.3   108  ARG108     -0.1245
     53  CA         2.9110   -6.4750  -18.6600 C.3   108  ARG108      0.1563
     54  C          4.0040   -6.3730  -17.6110 C.2   108  ARG108      0.2260
     55  O          3.7870   -6.5450  -16.4100 O.2   108  ARG108     -0.2867
     56  CB         1.7810   -5.4960  -18.3280 C.3   108  ARG108      0.0307
     57  CG         2.2370   -4.0380  -18.2140 C.3   108  ARG108      0.0489
     58  CD         1.0430   -3.1100  -18.2970 C.3   108  ARG108      0.2205
     59  NE         0.6850   -2.9850  -19.7000 N.pl3 108  ARG108     -0.0865
     60  CZ         0.1360   -1.8950  -20.2290 C.cat 108  ARG108      0.5346
     61  NH1       -0.1450   -0.8210  -19.5060 N.pl3 108  ARG108      0.1354
     62  NH2       -0.0770   -1.8630  -21.5360 N.pl3 108  ARG108      0.1354
     63  N          3.1140   -5.3680  -22.7960 N.3   130  LEU130     -0.1245
     64  CA         3.9660   -4.1700  -22.7530 C.3   130  LEU130      0.1561
     65  C          5.1540   -4.4570  -21.8450 C.2   130  LEU130      0.2260
     66  O          5.0200   -4.9620  -20.7250 O.2   130  LEU130     -0.2867
     67  CB         3.3190   -2.8900  -22.1770 C.3   130  LEU130      0.0270
     68  CG         4.1360   -1.5950  -22.0500 C.3   130  LEU130      0.0019
     69  CD1        3.2370   -0.4250  -22.2940 C.3   130  LEU130      0.0001
     70  CD2        4.7080   -1.4280  -20.6490 C.3   130  LEU130      0.0001
     71  N          6.0830   -2.9550  -27.4080 N.3   135  HIS135     -0.1241
     72  CA         4.6580   -3.1400  -27.1340 C.3   135  HIS135      0.1621
     73  C          3.9460   -3.5710  -28.4210 C.2   135  HIS135      0.2264
     74  O          3.1280   -2.8300  -28.9840 O.2   135  HIS135     -0.2867
     75  CB         4.0380   -1.8450  -26.5800 C.3   135  HIS135      0.0745
     76  CG         2.6480   -2.0390  -25.9520 C.ar  135  HIS135      0.0817
     77  ND1        1.9960   -3.1750  -25.6790 N.ar  135  HIS135     -0.2268
     78  CD2        1.8360   -0.9970  -25.5590 C.ar  135  HIS135      0.1154
     79  CE1        0.8390   -2.8430  -25.1420 C.ar  135  HIS135      0.1986
     80  NE2        0.7440   -1.5320  -25.0740 N.ar  135  HIS135     -0.2212
     81  N         -0.0530   -3.2290  -29.2360 N.3   138  GLN138     -0.1245
     82  CA        -0.5550   -1.8820  -29.5050 C.3   138  GLN138      0.1566
     83  C         -0.5530   -1.5880  -31.0060 C.2   138  GLN138      0.2260
     84  O         -1.5440   -1.0910  -31.5610 O.2   138  GLN138     -0.2867
     85  CB         0.3060   -0.8250  -28.8200 C.3   138  GLN138      0.0367
     86  CG        -0.1650    0.6190  -29.0590 C.3   138  GLN138      0.0905
     87  CD        -1.5790    0.8960  -28.5630 C.2   138  GLN138      0.2608
     88  OE1       -2.4780    1.3020  -29.3140 O.2   138  GLN138     -0.2717
     89  NE2       -1.7840    0.6890  -27.2660 N.am  138  GLN138     -0.0878
     90  N         10.7410    5.3420  -27.4030 N.3   165  ASN165     -0.1225
     91  CA        10.2640    4.3410  -26.4590 C.3   165  ASN165      0.1785
     92  C          9.7310    3.0490  -27.0770 C.2   165  ASN165      0.2597
     93  O          9.8810    2.8110  -28.2760 O.2   165  ASN165     -0.2718
     94  CB         9.1920    5.0230  -25.5820 C.3   165  ASN165      0.1169
     95  CG         7.8990    5.3940  -26.2970 C.2   165  ASN165      0.2627
     96  OD1        7.6440    5.0360  -27.4480 O.2   165  ASN165     -0.2716
     97  ND2        7.0430    6.1220  -25.5910 N.am  165  ASN165     -0.0877
     98  N          9.0680    2.2270  -26.2520 N.am  166  ASN166     -0.1960
     99  CA         8.5130    0.9380  -26.6500 C.3   166  ASN166      0.1819
    100  C          7.5570    0.9290  -27.8450 C.2   166  ASN166      0.2621
    101  O          7.6100    0.0130  -28.6760 O.2   166  ASN166     -0.2715
    102  CB         7.8140    0.2850  -25.4260 C.3   166  ASN166      0.1195
    103  CG         6.9540    1.1640  -24.5140 C.2   166  ASN166      0.2630
    104  OD1        6.5480    2.2860  -24.8300 O.2   166  ASN166     -0.2716
    105  ND2        6.6650    0.6500  -23.3210 N.am  166  ASN166     -0.0877
    106  N          6.7010    1.9630  -27.9470 N.am  167  ILE167     -0.1977
    107  CA         5.7280    2.1230  -29.0230 C.3   167  ILE167      0.1596
    108  C          6.4770    2.3960  -30.3190 C.2   167  ILE167      0.2287
    109  O          6.1790    1.7350  -31.3220 O.2   167  ILE167     -0.2864
    110  CB         4.7560    3.3100  -28.7530 C.3   167  ILE167      0.0276
    111  CG1        4.0990    3.1940  -27.3750 C.3   167  ILE167      0.0022
    112  CG2        3.6950    3.3350  -29.8730 C.3   167  ILE167      0.0022
    113  CD1        3.3030    1.9050  -27.1120 C.3   167  ILE167      0.0001
    114  N          2.8240    9.8690  -27.8470 N.3   230  ASP230     -0.1225
    115  CA         2.5800    9.1430  -26.6050 C.3   230  ASP230      0.1805
    116  C          3.1650    9.9930  -25.4920 C.2   230  ASP230      0.2598
    117  O          3.8220   10.9980  -25.7760 O.2   230  ASP230     -0.2718
    118  CB         3.2790    7.7900  -26.6970 C.3   230  ASP230      0.1424
    119  CG         3.2840    6.8540  -25.4900 C.2   230  ASP230      0.3668
    120  OD1        2.4180    6.9280  -24.6170 O.co2 230  ASP230     -0.2456
    121  OD2        4.1860    6.0310  -25.4520 O.co2 230  ASP230     -0.2456
    122  N          2.9570    9.6230  -24.2220 N.am  231  THR231     -0.1953
    123  CA         3.5280   10.3200  -23.0760 C.3   231  THR231      0.1897
    124  C          5.0470   10.4500  -23.1650 C.2   231  THR231      0.2313
    125  O          5.7560    9.5960  -23.7130 O.2   231  THR231     -0.2863
    126  CB         3.1250    9.5670  -21.7790 C.3   231  THR231      0.1794
    127  OG1        3.4900   10.4140  -20.6990 O.3   231  THR231     -0.2208
    128  CG2        3.7880    8.2030  -21.6280 C.3   231  THR231      0.0378
    129  N          7.0170    7.6840  -19.6410 N.3   234  SER234     -0.1202
    130  CA         6.4760    6.3310  -19.6050 C.3   234  SER234      0.2020
    131  C          6.4640    5.7430  -18.1960 C.2   234  SER234      0.2618
    132  O          7.1880    6.2380  -17.3300 O.2   234  SER234     -0.2717
    133  CB         7.2920    5.4140  -20.5010 C.3   234  SER234      0.2103
    134  OG         7.1060    5.6980  -21.8760 O.3   234  SER234     -0.2182
    135  N          5.6380    4.7100  -17.9340 N.am  235  MET235     -0.1979
    136  CA         5.5890    4.0680  -16.6230 C.3   235  MET235      0.1605
    137  C          6.9600    3.5130  -16.2380 C.2   235  MET235      0.2287
    138  O          7.6160    2.8300  -17.0270 O.2   235  MET235     -0.2864
    139  CB         4.5580    2.9420  -16.6400 C.3   235  MET235      0.0413
    140  CG         3.1070    3.4240  -16.7120 C.3   235  MET235      0.0598
    141  SD         1.8780    2.0950  -16.8280 S.3   235  MET235     -0.1393
    142  CE         1.8820    1.8330  -18.5820 C.3   235  MET235      0.0692
    143  N         -1.6200    5.8750  -28.1440 N.3   270  CYS270     -0.1221
    144  CA        -1.9230    4.6250  -27.4490 C.3   270  CYS270      0.1808
    145  C         -2.7160    4.7360  -26.1580 C.2   270  CYS270      0.2601
    146  O         -3.3630    3.7680  -25.7390 O.2   270  CYS270     -0.2717
    147  CB        -0.6250    3.8890  -27.1490 C.3   270  CYS270      0.0970
    148  SG         0.5090    4.7720  -26.0580 S.3   270  CYS270     -0.0800
    149  N         -2.6590    5.9450  -25.5590 N.am  271  LEU271     -0.1966
    150  CA        -3.2520    6.3500  -24.2860 C.3   271  LEU271      0.1713
    151  C         -2.6220    5.6150  -23.0900 C.2   271  LEU271      0.2458
    152  O         -1.9820    4.5720  -23.2800 O.2   271  LEU271     -0.2730
    153  CB        -4.7850    6.1270  -24.3180 C.3   271  LEU271      0.0310
    154  CG        -5.5890    6.7090  -25.4850 C.3   271  LEU271      0.0022
    155  CD1       -7.0810    6.5350  -25.2130 C.3   271  LEU271      0.0001
    156  CD2       -5.2540    8.1790  -25.6650 C.3   271  LEU271      0.0001
    157  N         -2.6740    6.1080  -21.8350 N.am  272  PRO272     -0.2727
    158  CA        -3.2500    7.3910  -21.4260 C.3   272  PRO272      0.1402
    159  C         -2.5050    8.6310  -21.9200 C.2   272  PRO272      0.2269
    160  O         -1.2710    8.6760  -21.9970 O.2   272  PRO272     -0.2865
    161  CB        -3.2970    7.2760  -19.9200 C.3   272  PRO272      0.0296
    162  CG        -2.0350    6.5080  -19.6180 C.3   272  PRO272      0.0237
    163  CD        -2.1100    5.4170  -20.6720 C.3   272  PRO272      0.0939
    164  N         -7.8660   -2.4860  -29.6130 N.3   297  ARG297     -0.1245
    165  CA        -7.0250   -3.2710  -28.7140 C.3   297  ARG297      0.1563
    166  C         -7.7440   -4.5880  -28.3810 C.2   297  ARG297      0.2260
    167  O         -7.1170   -5.6440  -28.2660 O.2   297  ARG297     -0.2867
    168  CB        -6.7560   -2.4940  -27.4110 C.3   297  ARG297      0.0307
    169  CG        -5.8640   -1.2370  -27.5630 C.3   297  ARG297      0.0489
    170  CD        -4.4130   -1.5400  -28.0320 C.3   297  ARG297      0.2205
    171  NE        -3.8440   -2.6180  -27.2400 N.pl3 297  ARG297     -0.0865
    172  CZ        -3.2200   -2.4090  -26.0770 C.cat 297  ARG297      0.5346
    173  NH1       -3.0280   -1.1950  -25.5610 N.pl3 297  ARG297      0.1354
    174  NH2       -2.9450   -3.4580  -25.3180 N.pl3 297  ARG297      0.1354
@<TRIPOS>BOND
     1    84    83    2
     2   109   108    2
     3    83    82    1
     4   108   107    1
     5   112   110    1
     6   164   165    1
     7    82    81    1
     8    82    85    1
     9    88    87    2
    10    86    85    1
    11    86    87    1
    12   107   110    1
    13   107   106    1
    14    74    73    2
    15   110   111    1
    16   165   166    1
    17   165   168    1
    18   101   100    2
    19    87    89   am
    20    73    72    1
    21   166   167    2
    22    93    92    2
    23   143   144    1
    24   170   169    1
    25   170   171    1
    26   106   100   am
    27   114   115    1
    28   100    99    1
    29   169   168    1
    30   144   147    1
    31   144   145    1
    32    96    95    2
    33    71    72    1
    34    90    91    1
    35   111   113    1
    36   171   172    2
    37   147   148    1
    38    72    75    1
    39    92    91    1
    40    92    98   am
    41   118   115    1
    42   118   119    1
    43    99    98    1
    44    99   102    1
    45   115   116    1
    46    75    76    1
    47    91    94    1
    48    95    97   am
    49    95    94    1
    50   145   146    2
    51   145   149   am
    52   172   173    1
    53   172   174    1
    54    76    77   ar
    55    76    78   ar
    56   117   116    2
    57    77    79   ar
    58   156   154    1
    59   149   150    1
    60    78    80   ar
    61   116   122   am
    62   119   121   ar
    63   119   120   ar
    64   154   155    1
    65   154   153    1
    66   102   103    1
    67    79    80   ar
    68   104   103    2
    69   103   105   am
    70   153   150    1
    71   150   151    1
    72   122   123    1
    73    40    39    1
    74    40    41    1
    75   125   124    2
    76    39    38    1
    77   152   151    2
    78    38    35    1
    79   124   123    1
    80   151   157   am
    81   123   126    1
    82    63    64    1
    83    64    67    1
    84    64    65    1
    85    37    36    2
    86    50    49    1
    87    41    42    2
    88    69    68    1
    89    36    35    1
    90    36    45   am
    91    67    68    1
    92    43    42    1
    93    46    45    1
    94    46    49    1
    95    46    47    1
    96    35    34    1
    97    68    70    1
    98    51    49    1
    99   160   159    2
   100   159   158    1
   101   134   133    1
   102    65    66    2
   103   157   158    1
   104   157   163    1
   105    42    44    1
   106   126   128    1
   107   126   127    1
   108    48    47    2
   109    62    60    1
   110   158   161    1
   111    34    29   am
   112   163   162    1
   113   133   130    1
   114    60    59    2
   115    60    61    1
   116   161   162    1
   117    59    58    1
   118    29    30    2
   119    29    28    1
   120   129   130    1
   121   130   131    1
   122    26    25    1
   123    33    31    1
   124    53    52    1
   125    53    56    1
   126    53    54    1
   127   142   141    1
   128    31    28    1
   129    31    32    1
   130    28    27    1
   131    56    57    1
   132    58    57    1
   133    27    23   am
   134   131   135   am
   135   131   132    2
   136     9     8    1
   137   135   136    1
   138    25    22    1
   139    54    55    2
   140    22    23    1
   141    22    21    1
   142    23    24    2
   143   138   137    2
   144   141   140    1
   145     7     8    1
   146     7     6    1
   147    13    12    2
   148   140   139    1
   149   139   136    1
   150   136   137    1
   151    21    12   am
   152    12    11    1
   153     5     6    1
   154     5     2    1
   155     4     3    2
   156    11    10    1
   157    11    14    1
   158     3    10   am
   159     3     2    1
   160     2     1    1
   161    14    15    1
   162    15    16    1
   163    16    17    1
   164    17    18    2
   165    19    18    1
   166    18    20    1
