@<TRIPOS>MOLECULE
tmp/1otwA00.pdb
 216 205 0 0 0
SMALL
GASTEIGER

@<TRIPOS>ATOM
      1  N          9.3510   32.7690    6.5960 N.3    24  TYR24      -0.1227
      2  CA         8.2020   33.3050    5.8620 C.3    24  TYR24       0.1736
      3  C          6.9840   32.3960    6.0830 C.2    24  TYR24       0.2595
      4  O          7.1350   31.2170    6.4160 O.2    24  TYR24      -0.2718
      5  CB         8.5060   33.4170    4.3700 C.3    24  TYR24       0.0548
      6  CG         7.6720   34.4280    3.5840 C.ar   24  TYR24      -0.0200
      7  CD1        7.3820   35.6970    4.0960 C.ar   24  TYR24      -0.0009
      8  CD2        7.2480   34.1500    2.2880 C.ar   24  TYR24      -0.0009
      9  CE1        6.6610   36.6400    3.3600 C.ar   24  TYR24       0.0417
     10  CE2        6.5360   35.0860    1.5460 C.ar   24  TYR24       0.0417
     11  CZ         6.2310   36.3340    2.0960 C.ar   24  TYR24       0.1957
     12  OH         5.4960   37.2710    1.3630 O.3    24  TYR24      -0.2866
     13  N          5.7960   32.9720    5.8800 N.am   25  HIS25      -0.1975
     14  CA         4.5060   32.2830    6.0470 C.3    25  HIS25       0.1656
     15  C          4.1910   31.2740    4.9370 C.2    25  HIS25       0.2291
     16  O          3.2230   30.5510    5.0140 O.2    25  HIS25      -0.2864
     17  CB         3.3660   33.3060    6.2740 C.3    25  HIS25       0.0771
     18  CG         3.0880   34.2020    5.0980 C.ar   25  HIS25       0.0820
     19  ND1        1.8410   34.7320    4.8510 N.ar   25  HIS25      -0.2267
     20  CD2        3.8870   34.6410    4.0990 C.ar   25  HIS25       0.1154
     21  CE1        1.8800   35.4270    3.7320 C.ar   25  HIS25       0.1986
     22  NE2        3.1150   35.4020    3.2700 N.ar   25  HIS25      -0.2212
     23  N         -7.5670   38.2320    4.1680 N.3    51  ARG51      -0.1245
     24  CA        -6.4400   38.9260    3.5360 C.3    51  ARG51       0.1563
     25  C         -6.8080   40.2630    2.9030 C.2    51  ARG51       0.2260
     26  O         -5.9660   41.1350    2.8210 O.2    51  ARG51      -0.2867
     27  CB        -5.6810   38.0400    2.5270 C.3    51  ARG51       0.0307
     28  CG        -4.4060   37.3370    3.1960 C.3    51  ARG51       0.0489
     29  CD        -3.1950   38.2310    3.2950 C.3    51  ARG51       0.2205
     30  NE        -2.8120   38.8310    2.0030 N.pl3  51  ARG51      -0.0865
     31  CZ        -1.9580   38.2670    1.1540 C.cat  51  ARG51       0.5346
     32  NH1       -1.4330   37.0890    1.4550 N.pl3  51  ARG51       0.1354
     33  NH2       -1.6630   38.8470   -0.0080 N.pl3  51  ARG51       0.1354
     34  N         -5.8090   43.0250    4.9520 N.3    54  TYR54      -0.1227
     35  CA        -4.3800   43.3310    4.7850 C.3    54  TYR54       0.1736
     36  C         -4.1760   44.1630    3.5470 C.2    54  TYR54       0.2595
     37  O         -3.5150   45.1810    3.6200 O.2    54  TYR54      -0.2718
     38  CB        -3.5790   42.0400    4.7230 C.3    54  TYR54       0.0548
     39  CG        -2.0710   42.2020    4.6900 C.ar   54  TYR54      -0.0200
     40  CD1       -1.3760   42.6020    5.8330 C.ar   54  TYR54      -0.0009
     41  CD2       -1.3410   41.8560    3.5700 C.ar   54  TYR54      -0.0009
     42  CE1        0.0080   42.7480    5.8260 C.ar   54  TYR54       0.0417
     43  CE2        0.0550   41.9570    3.5530 C.ar   54  TYR54       0.0417
     44  CZ         0.7220   42.4210    4.6870 C.ar   54  TYR54       0.1957
     45  OH         2.0760   42.5500    4.7020 O.3    54  TYR54      -0.2866
     46  N         -4.7920   43.7730    2.4220 N.am   55  GLN55      -0.1979
     47  CA        -4.6610   44.5340    1.1900 C.3    55  GLN55       0.1601
     48  C         -5.1160   45.9650    1.3600 C.2    55  GLN55       0.2287
     49  O         -4.4670   46.8440    0.8260 O.2    55  GLN55      -0.2864
     50  CB        -5.4490   43.9200    0.0130 C.3    55  GLN55       0.0394
     51  CG        -5.1150   42.4710   -0.2570 C.3    55  GLN55       0.0908
     52  CD        -3.6210   42.1640   -0.2850 C.2    55  GLN55       0.2608
     53  OE1       -3.1310   41.3430    0.5140 O.2    55  GLN55      -0.2717
     54  NE2       -2.8990   42.7860   -1.2270 N.am   55  GLN55      -0.0878
     55  N         -2.4980   48.1190    3.3800 N.3    58  ILE58      -0.1245
     56  CA        -1.2480   48.4170    2.7180 C.3    58  ILE58       0.1561
     57  C         -1.1680   49.8960    2.3710 C.2    58  ILE58       0.2260
     58  O         -0.2250   50.5310    2.7930 O.2    58  ILE58      -0.2867
     59  CB        -1.0060   47.4990    1.4810 C.3    58  ILE58       0.0252
     60  CG1       -0.8510   46.0180    1.8990 C.3    58  ILE58       0.0019
     61  CG2        0.2830   47.8340    0.7780 C.3    58  ILE58       0.0019
     62  CD1       -0.0240   45.9050    3.1400 C.3    58  ILE58       0.0001
     63  N         -0.8690   52.1930    5.4560 N.3    61  LYS61      -0.1231
     64  CA         0.4620   51.9990    6.0430 C.3    61  LYS61       0.1693
     65  C          1.4970   52.7660    5.2610 C.2    61  LYS61       0.2592
     66  O          2.3910   53.4310    5.8340 O.2    61  LYS61      -0.2718
     67  CB         0.7600   50.4970    6.0130 C.3    61  LYS61       0.0285
     68  CG         2.1350   50.0780    6.4010 C.3    61  LYS61       0.0035
     69  CD         3.1350   50.0260    5.2680 C.3    61  LYS61       0.0206
     70  CE         2.9340   48.9840    4.2500 C.3    61  LYS61       0.1093
     71  NZ         3.9960   49.2180    3.1770 N.3    61  LYS61      -0.1314
     72  N          1.3270   52.7500    3.9400 N.am   62  ASP62      -0.1974
     73  CA         2.2410   53.4120    3.0940 C.3    62  ASP62       0.1709
     74  C          2.0110   54.8900    3.1570 C.2    62  ASP62       0.2293
     75  O          2.9610   55.6880    3.1490 O.2    62  ASP62      -0.2864
     76  CB         2.0900   52.8950    1.6360 C.3    62  ASP62       0.1436
     77  CG         2.8390   51.6380    1.4110 C.2    62  ASP62       0.3671
     78  OD1        2.3990   50.7700    0.6220 O.co2  62  ASP62      -0.2456
     79  OD2        3.9390   51.4440    1.9550 O.co2  62  ASP62      -0.2456
     80  N          3.4060   52.8070   -4.5630 N.3    81  ARG81      -0.1245
     81  CA         2.7860   51.7210   -3.8640 C.3    81  ARG81       0.1563
     82  C          1.2900   51.9820   -3.7110 C.2    81  ARG81       0.2260
     83  O          0.4960   51.0810   -3.8060 O.2    81  ARG81      -0.2867
     84  CB         3.4230   51.5490   -2.5140 C.3    81  ARG81       0.0307
     85  CG         4.8150   51.0540   -2.6020 C.3    81  ARG81       0.0489
     86  CD         5.5460   51.0960   -1.2370 C.3    81  ARG81       0.2205
     87  NE         6.9530   50.7200   -1.3830 N.pl3  81  ARG81      -0.0865
     88  CZ         7.4490   49.5190   -1.1130 C.cat  81  ARG81       0.5346
     89  NH1        6.6760   48.5490   -0.6240 N.pl3  81  ARG81       0.1354
     90  NH2        8.7540   49.2880   -1.2580 N.pl3  81  ARG81       0.1354
     91  N         -2.0940   49.8380   -5.4730 N.3    85  HIS85      -0.1241
     92  CA        -3.1870   49.2450   -4.7140 C.3    85  HIS85       0.1621
     93  C         -4.4980   50.0090   -4.9140 C.2    85  HIS85       0.2264
     94  O         -5.5660   49.4080   -4.9820 O.2    85  HIS85      -0.2867
     95  CB        -2.8310   49.1430   -3.2100 C.3    85  HIS85       0.0745
     96  CG        -1.9960   47.9490   -2.8980 C.ar   85  HIS85       0.0817
     97  ND1       -0.6270   48.0120   -2.7560 N.ar   85  HIS85      -0.2268
     98  CD2       -2.3170   46.6350   -2.8160 C.ar   85  HIS85       0.1154
     99  CE1       -0.1440   46.7990   -2.5620 C.ar   85  HIS85       0.1986
    100  NE2       -1.1440   45.9460   -2.6110 N.ar   85  HIS85      -0.2212
    101  N          0.9660   46.4060   12.1530 N.3   129  TYR129     -0.1241
    102  CA         1.7730   46.9220   11.0660 C.3   129  TYR129      0.1605
    103  C          1.5030   48.3820   10.8040 C.2   129  TYR129      0.2264
    104  O          2.4310   49.1760   10.6740 O.2   129  TYR129     -0.2867
    105  CB         1.4700   46.1070    9.7910 C.3   129  TYR129      0.0534
    106  CG         2.4190   46.2610    8.6210 C.ar  129  TYR129     -0.0201
    107  CD1        3.7200   46.7700    8.7630 C.ar  129  TYR129     -0.0009
    108  CD2        2.0150   45.8730    7.3620 C.ar  129  TYR129     -0.0009
    109  CE1        4.5980   46.8760    7.6240 C.ar  129  TYR129      0.0417
    110  CE2        2.8500   45.9630    6.2800 C.ar  129  TYR129      0.0417
    111  CZ         4.1410   46.4730    6.3970 C.ar  129  TYR129      0.1957
    112  OH         4.9290   46.5300    5.2540 O.3   129  TYR129     -0.2866
    113  N          8.7800   46.6020    4.9420 N.3   145  SER145     -0.1217
    114  CA         8.1810   46.0540    3.7230 C.3   145  SER145      0.1889
    115  C          8.9470   44.8930    3.1010 C.2   145  SER145      0.2288
    116  O          8.4350   44.1470    2.2810 O.2   145  SER145     -0.2866
    117  CB         8.0760   47.1220    2.6690 C.3   145  SER145      0.2089
    118  OG         9.3400   47.5530    2.2450 O.3   145  SER145     -0.2183
    119  N          9.7530   41.8900    3.6530 N.3   147  THR147     -0.1203
    120  CA         9.2780   40.4990    3.4260 C.3   147  THR147      0.1994
    121  C          8.7650   40.3470    2.0010 C.2   147  THR147      0.2617
    122  O          8.5180   39.2570    1.5170 O.2   147  THR147     -0.2717
    123  CB         8.2150   40.0760    4.3880 C.3   147  THR147      0.1784
    124  OG1        7.1450   41.0390    4.3820 O.3   147  THR147     -0.2211
    125  CG2        8.7470   40.0530    5.7790 C.3   147  THR147      0.0376
    126  N          8.6330   41.4530    1.3030 N.am  148  GLU148     -0.1979
    127  CA         8.2780   41.4030   -0.0860 C.3   148  GLU148      0.1602
    128  C          9.3630   40.6650   -0.8540 C.2   148  GLU148      0.2287
    129  O          9.1350   40.2010   -1.9390 O.2   148  GLU148     -0.2864
    130  CB         8.0960   42.8250   -0.6350 C.3   148  GLU148      0.0415
    131  CG         6.7410   43.4620   -0.3730 C.3   148  GLU148      0.1163
    132  CD         6.5530   44.7860   -1.1020 C.2   148  GLU148      0.3649
    133  OE1        5.8510   44.8020   -2.1220 O.co2 148  GLU148     -0.2457
    134  OE2        7.1360   45.8170   -0.6810 O.co2 148  GLU148     -0.2457
    135  N          7.9440   37.3240   -1.4800 N.3   151  ALA151     -0.1245
    136  CA         6.5530   37.2940   -1.9230 C.3   151  ALA151      0.1562
    137  C          6.3420   36.7120   -3.3190 C.2   151  ALA151      0.2260
    138  O          5.4300   35.9090   -3.5090 O.2   151  ALA151     -0.2867
    139  CB         5.8930   38.7030   -1.8010 C.3   151  ALA151      0.0290
    140  N          5.8430   32.9950   -3.1170 N.3   154  ILE154     -0.1231
    141  CA         4.5860   32.5250   -2.5930 C.3   154  ILE154      0.1692
    142  C          3.4450   32.6980   -3.6080 C.2   154  ILE154      0.2592
    143  O          2.5690   31.8060   -3.7470 O.2   154  ILE154     -0.2718
    144  CB         4.2980   33.1020   -1.2000 C.3   154  ILE154      0.0266
    145  CG1        3.3000   32.1890   -0.4860 C.3   154  ILE154      0.0019
    146  CG2        3.8660   34.5950   -1.2210 C.3   154  ILE154      0.0020
    147  CD1        3.1070   32.5620    0.9700 C.3   154  ILE154      0.0001
    148  N          3.4910   33.7910   -4.3520 N.am  155  HIS155     -0.1976
    149  CA         2.4720   34.0760   -5.3530 C.3   155  HIS155      0.1656
    150  C          2.5580   33.1100   -6.4820 C.2   155  HIS155      0.2291
    151  O          1.5450   32.6100   -6.9380 O.2   155  HIS155     -0.2864
    152  CB         2.6630   35.4480   -5.9150 C.3   155  HIS155      0.0771
    153  CG         2.3510   36.5430   -4.9510 C.ar  155  HIS155      0.0820
    154  ND1        1.0680   36.8730   -4.6140 N.ar  155  HIS155     -0.2267
    155  CD2        3.1490   37.4390   -4.3250 C.ar  155  HIS155      0.1154
    156  CE1        1.0930   37.8830   -3.7610 C.ar  155  HIS155      0.1986
    157  NE2        2.3440   38.2670   -3.6010 N.ar  155  HIS155     -0.2212
    158  N          1.0230   29.6120   -5.6130 N.3   158  ARG158     -0.1245
    159  CA        -0.4110   29.5640   -5.7620 C.3   158  ARG158      0.1563
    160  C         -0.7650   29.4510   -7.2140 C.2   158  ARG158      0.2260
    161  O         -1.6250   28.6770   -7.5930 O.2   158  ARG158     -0.2867
    162  CB        -1.0430   30.8320   -5.2120 C.3   158  ARG158      0.0307
    163  CG        -0.8250   31.0170   -3.7460 C.3   158  ARG158      0.0489
    164  CD        -1.2170   32.3880   -3.3110 C.3   158  ARG158      0.2205
    165  NE        -0.8640   32.6120   -1.9300 N.pl3 158  ARG158     -0.0865
    166  CZ        -0.3490   33.7170   -1.4490 C.cat 158  ARG158      0.5346
    167  NH1       -0.1050   34.7360   -2.2420 N.pl3 158  ARG158      0.1354
    168  NH2       -0.1080   33.8150   -0.1520 N.pl3 158  ARG158      0.1354
    169  N         -4.2740   39.1120   -9.5460 N.3   176  TYR176     -0.1241
    170  CA        -3.5300   39.7710   -8.5100 C.3   176  TYR176      0.1605
    171  C         -2.1900   39.0750   -8.2710 C.2   176  TYR176      0.2264
    172  O         -1.1270   39.7180   -8.2830 O.2   176  TYR176     -0.2867
    173  CB        -4.3370   39.8430   -7.1910 C.3   176  TYR176      0.0534
    174  CG        -3.5420   40.5710   -6.1470 C.ar  176  TYR176     -0.0201
    175  CD1       -3.4540   41.9430   -6.1740 C.ar  176  TYR176     -0.0009
    176  CD2       -2.8290   39.8970   -5.1850 C.ar  176  TYR176     -0.0009
    177  CE1       -2.7140   42.6230   -5.2580 C.ar  176  TYR176      0.0417
    178  CE2       -2.0460   40.5980   -4.2380 C.ar  176  TYR176      0.0417
    179  CZ        -2.0090   41.9560   -4.2950 C.ar  176  TYR176      0.1957
    180  OH        -1.2680   42.6890   -3.4340 O.3   176  TYR176     -0.2866
    181  N          1.6940   40.9310   -8.9380 N.3   180  ARG180     -0.1245
    182  CA         2.6810   41.1590   -7.9030 C.3   180  ARG180      0.1563
    183  C          4.0730   40.5970   -8.1990 C.2   180  ARG180      0.2260
    184  O          5.0570   40.9850   -7.5750 O.2   180  ARG180     -0.2867
    185  CB         2.1710   40.6420   -6.5620 C.3   180  ARG180      0.0307
    186  CG         0.9620   41.3680   -6.0800 C.3   180  ARG180      0.0489
    187  CD         1.1520   42.8750   -5.9710 C.3   180  ARG180      0.2205
    188  NE         2.1400   43.1810   -4.9580 N.pl3 180  ARG180     -0.0865
    189  CZ         2.5050   44.4010   -4.5800 C.cat 180  ARG180      0.5346
    190  NH1        2.0110   45.4890   -5.1540 N.pl3 180  ARG180      0.1354
    191  NH2        3.4030   44.5320   -3.6010 N.pl3 180  ARG180      0.1354
    192  N          9.2180   47.0600   -5.8720 N.3   187  ASP187     -0.1239
    193  CA         9.1640   47.5160   -4.4950 C.3   187  ASP187      0.1674
    194  C         10.5180   47.3230   -3.8190 C.2   187  ASP187      0.2266
    195  O         11.0260   48.2330   -3.1920 O.2   187  ASP187     -0.2867
    196  CB         8.0590   46.7770   -3.7160 C.3   187  ASP187      0.1410
    197  CG         6.6560   47.2790   -4.0700 C.2   187  ASP187      0.3668
    198  OD1        6.5650   48.1640   -4.9440 O.co2 187  ASP187     -0.2456
    199  OD2        5.6070   46.8320   -3.5320 O.co2 187  ASP187     -0.2456
    200  N          7.6310   41.8680   11.2960 N.3   215  LYS215     -0.1245
    201  CA         6.7880   41.7480   10.1220 C.3   215  LYS215      0.1561
    202  C          6.3930   40.3160    9.9090 C.2   215  LYS215      0.2260
    203  O          5.2320   40.0470    9.5950 O.2   215  LYS215     -0.2867
    204  CB         7.5170   42.2500    8.9130 C.3   215  LYS215      0.0271
    205  CG         6.7600   42.1310    7.6150 C.3   215  LYS215      0.0035
    206  CD         5.5990   43.0810    7.5210 C.3   215  LYS215      0.0206
    207  CE         4.9730   42.9780    6.1190 C.3   215  LYS215      0.1093
    208  NZ         5.9160   43.3290    5.0240 N.3   215  LYS215     -0.1314
    209  N          2.5210   38.2130    9.7840 N.3   219  LEU219     -0.1245
    210  CA         1.9930   37.3780    8.7270 C.3   219  LEU219      0.1561
    211  C          1.6300   36.0090    9.2500 C.2   219  LEU219      0.2260
    212  O          0.6510   35.4120    8.7660 O.2   219  LEU219     -0.2867
    213  CB         3.0330   37.1860    7.6470 C.3   219  LEU219      0.0270
    214  CG         3.4950   38.4530    6.9490 C.3   219  LEU219      0.0019
    215  CD1        4.7340   38.1920    6.1330 C.3   219  LEU219      0.0001
    216  CD2        2.3940   38.9520    6.0950 C.3   219  LEU219      0.0001
@<TRIPOS>BOND
     1   169   170    1
     2   181   182    1
     3   170   171    1
     4   170   173    1
     5   172   171    2
     6   183   182    1
     7   183   184    2
     8   182   185    1
     9   161   160    2
    10   160   159    1
    11   173   174    1
    12   151   150    2
    13   185   186    1
    14   150   149    1
    15   175   174   ar
    16   175   177   ar
    17   174   176   ar
    18   186   187    1
    19   187   188    1
    20   152   149    1
    21   152   153    1
    22   192   193    1
    23   159   158    1
    24   159   162    1
    25    91    92    1
    26   149   148    1
    27   177   179   ar
    28   162   163    1
    29   176   178   ar
    30   190   189    1
    31    94    93    2
    32   188   189    2
    33   153   154   ar
    34   153   155   ar
    35   198   197   ar
    36    93    92    1
    37    92    95    1
    38   154   156   ar
    39   189   191    1
    40    80    81    1
    41   193   194    1
    42   193   196    1
    43   148   142   am
    44   155   157   ar
    45   179   178   ar
    46   179   180    1
    47   197   196    1
    48   197   199   ar
    49    81    82    1
    50    81    84    1
    51   194   195    2
    52    83    82    2
    53   156   157   ar
    54   143   142    2
    55   163   164    1
    56   142   141    1
    57   138   137    2
    58   137   136    1
    59   164   165    1
    60    95    96    1
    61   140   141    1
    62    96    98   ar
    63    96    97   ar
    64    98   100   ar
    65    97    99   ar
    66   100    99   ar
    67    85    84    1
    68    85    86    1
    69   141   144    1
    70   167   166    1
    71   133   132   ar
    72   129   128    2
    73   165   166    2
    74   136   139    1
    75   136   135    1
    76   166   168    1
    77    87    86    1
    78    87    88    2
    79    90    88    1
    80    54    52   am
    81   146   144    1
    82   144   145    1
    83    88    89    1
    84   132   134   ar
    85   132   131    1
    86   128   127    1
    87   130   131    1
    88   130   127    1
    89   145   147    1
    90    52    51    1
    91    52    53    2
    92    51    50    1
    93   127   126    1
    94    33    31    1
    95    50    47    1
    96    78    77   ar
    97    61    59    1
    98    49    48    2
    99    31    32    1
   100    31    30    2
   101    47    48    1
   102    47    46    1
   103   126   121   am
   104    12    11    1
   105    77    76    1
   106    77    79   ar
   107    59    60    1
   108    59    56    1
   109   122   121    2
   110    10    11   ar
   111    10     8   ar
   112    76    73    1
   113    60    62    1
   114   121   120    1
   115    30    29    1
   116    11     9   ar
   117   118   117    1
   118   116   115    2
   119     8     6   ar
   120    57    56    1
   121    57    58    2
   122    46    36   am
   123    27    28    1
   124    27    24    1
   125   117   114    1
   126    56    55    1
   127    26    25    2
   128    25    24    1
   129    73    74    1
   130    73    72    1
   131   115   114    1
   132    75    74    2
   133    71    70    1
   134    28    29    1
   135    22    21   ar
   136    22    20   ar
   137     9     7   ar
   138   120   119    1
   139   120   123    1
   140    24    23    1
   141    36    37    2
   142    36    35    1
   143    43    41   ar
   144    43    44   ar
   145    41    39   ar
   146     6     7   ar
   147     6     5    1
   148   114   113    1
   149    21    19   ar
   150    72    65   am
   151    20    18   ar
   152    70    69    1
   153     5     2    1
   154   124   123    1
   155   123   125    1
   156    44    45    1
   157    44    42   ar
   158    39    38    1
   159    39    40   ar
   160    38    35    1
   161    35    34    1
   162    19    18   ar
   163    15    16    2
   164    15    14    1
   165   208   207    1
   166    18    17    1
   167   112   111    1
   168    65    66    2
   169    65    64    1
   170    69    68    1
   171    63    64    1
   172    42    40   ar
   173     2     3    1
   174     2     1    1
   175    13    14    1
   176    13     3   am
   177    67    64    1
   178    67    68    1
   179    14    17    1
   180     3     4    2
   181   216   214    1
   182   207   206    1
   183   215   214    1
   184   110   111   ar
   185   110   108   ar
   186   111   109   ar
   187   214   213    1
   188   108   106   ar
   189   206   205    1
   190   205   204    1
   191   109   107   ar
   192   213   210    1
   193   106   107   ar
   194   106   105    1
   195   210   211    1
   196   210   209    1
   197   212   211    2
   198   204   201    1
   199   203   202    2
   200   105   102    1
   201   202   201    1
   202   201   200    1
   203   104   103    2
   204   103   102    1
   205   102   101    1
