@<TRIPOS>MOLECULE
tmp/1otyC00.pdb
 97 92 0 0 0
SMALL
GASTEIGER

@<TRIPOS>ATOM
      1  N         45.3620   46.1530   28.9230 N.3    90  SER90      -0.1202
      2  CA        45.0670   46.9300   27.7270 C.3    90  SER90       0.2020
      3  C         46.3050   46.9950   26.8460 C.2    90  SER90       0.2619
      4  O         47.4240   46.8070   27.3190 O.2    90  SER90      -0.2717
      5  CB        44.6490   48.3410   28.1150 C.3    90  SER90       0.2103
      6  OG        45.6450   48.9390   28.9250 O.3    90  SER90      -0.2182
      7  N         46.1000   47.2600   25.5630 N.am   91  CYS91      -0.1955
      8  CA        47.2100   47.3410   24.6350 C.3    91  CYS91       0.1843
      9  C         46.8820   48.3220   23.5300 C.2    91  CYS91       0.2626
     10  O         45.7090   48.5520   23.2280 O.2    91  CYS91      -0.2714
     11  CB        47.4800   45.9700   24.0230 C.3    91  CYS91       0.0997
     12  SG        46.1570   45.3780   22.9350 S.3    91  CYS91      -0.0797
     13  N         47.9200   48.9040   22.9360 N.am   92  GLY92      -0.1954
     14  CA        47.7230   49.8300   21.8370 C.3    92  GLY92       0.1869
     15  C         47.8250   49.0210   20.5610 C.2    92  GLY92       0.2309
     16  O         48.5640   48.0460   20.5150 O.2    92  GLY92      -0.2863
     17  N         56.8380   46.4410   25.1250 N.3   156  ALA156     -0.1245
     18  CA        57.7830   47.5540   25.0590 C.3   156  ALA156      0.1562
     19  C         58.2870   47.9810   26.4360 C.2   156  ALA156      0.2260
     20  O         57.5550   47.9140   27.4190 O.2   156  ALA156     -0.2867
     21  CB        57.1240   48.7400   24.3620 C.3   156  ALA156      0.0290
     22  N         59.6760   51.0490   26.7530 N.3   158  LEU158     -0.1231
     23  CA        59.3500   52.4730   26.7600 C.3   158  LEU158      0.1693
     24  C         57.9720   52.8130   26.1900 C.2   158  LEU158      0.2592
     25  O         57.7380   52.7030   24.9840 O.2   158  LEU158     -0.2718
     26  CB        60.4170   53.2680   25.9970 C.3   158  LEU158      0.0284
     27  CG        61.8020   53.3110   26.6330 C.3   158  LEU158      0.0019
     28  CD1       62.7420   54.0850   25.7330 C.3   158  LEU158      0.0001
     29  CD2       61.7190   53.9560   28.0100 C.3   158  LEU158      0.0001
     30  N         57.0700   53.2300   27.0750 N.am  159  PHE159     -0.1976
     31  CA        55.7240   53.6320   26.6910 C.3   159  PHE159      0.1639
     32  C         55.8900   54.8440   25.7790 C.2   159  PHE159      0.2290
     33  O         55.1720   55.0050   24.7940 O.2   159  PHE159     -0.2864
     34  CB        54.9220   53.9970   27.9430 C.3   159  PHE159      0.0560
     35  CG        53.5100   54.4340   27.6640 C.ar  159  PHE159     -0.0200
     36  CD1       53.2250   55.7600   27.3430 C.ar  159  PHE159     -0.0042
     37  CD2       52.4630   53.5220   27.7210 C.ar  159  PHE159     -0.0042
     38  CE1       51.9140   56.1720   27.0840 C.ar  159  PHE159     -0.0003
     39  CE2       51.1480   53.9230   27.4630 C.ar  159  PHE159     -0.0003
     40  CZ        50.8750   55.2530   27.1440 C.ar  159  PHE159     -0.0000
     41  N         57.1160   51.1430   15.1040 N.3   167  PHE167     -0.1241
     42  CA        55.7010   50.7940   15.0090 C.3   167  PHE167      0.1605
     43  C         55.3680   50.2990   13.5970 C.2   167  PHE167      0.2264
     44  O         54.4970   49.4460   13.4250 O.2   167  PHE167     -0.2867
     45  CB        54.8210   51.9930   15.3950 C.3   167  PHE167      0.0534
     46  CG        54.8810   52.3300   16.8610 C.ar  167  PHE167     -0.0203
     47  CD1       55.2260   53.6140   17.2870 C.ar  167  PHE167     -0.0042
     48  CD2       54.6390   51.3490   17.8190 C.ar  167  PHE167     -0.0042
     49  CE1       55.3360   53.9140   18.6540 C.ar  167  PHE167     -0.0003
     50  CE2       54.7440   51.6350   19.1860 C.ar  167  PHE167     -0.0003
     51  CZ        55.0940   52.9200   19.6060 C.ar  167  PHE167     -0.0000
     52  N         50.2870   46.3870   21.3970 N.3   178  VAL178     -0.1231
     53  CA        51.4870   46.8660   22.0590 C.3   178  VAL178      0.1692
     54  C         51.2220   47.0880   23.5380 C.2   178  VAL178      0.2592
     55  O         50.4140   47.9380   23.9220 O.2   178  VAL178     -0.2718
     56  CB        51.9810   48.2010   21.4600 C.3   178  VAL178      0.0266
     57  CG1       53.2410   48.6560   22.1840 C.3   178  VAL178      0.0020
     58  CG2       52.2660   48.0350   19.9810 C.3   178  VAL178      0.0020
     59  N         51.8930   46.3090   24.3710 N.am  179  GLU179     -0.1966
     60  CA        51.7440   46.4620   25.8030 C.3   179  GLU179      0.1733
     61  C         53.1340   46.4870   26.4490 C.2   179  GLU179      0.2616
     62  O         54.1100   46.8440   25.7810 O.2   179  GLU179     -0.2715
     63  CB        50.8320   45.3580   26.3610 C.3   179  GLU179      0.0429
     64  CG        51.1170   43.9450   25.8950 C.3   179  GLU179      0.1163
     65  CD        52.2230   43.2950   26.6900 C.2   179  GLU179      0.3649
     66  OE1       53.3430   43.1700   26.1520 O.co2 179  GLU179     -0.2457
     67  OE2       51.9700   42.9200   27.8580 O.co2 179  GLU179     -0.2457
     68  N         53.2500   46.1230   27.7240 N.am  180  MET180     -0.1977
     69  CA        54.5590   46.1780   28.3870 C.3   180  MET180      0.1605
     70  C         54.8690   45.0340   29.3510 C.2   180  MET180      0.2287
     71  O         55.6790   45.2030   30.2620 O.2   180  MET180     -0.2864
     72  CB        54.6800   47.4960   29.1580 C.3   180  MET180      0.0413
     73  CG        54.4890   48.7300   28.3080 C.3   180  MET180      0.0598
     74  SD        54.5070   50.2640   29.2630 S.3   180  MET180     -0.1393
     75  CE        56.2150   50.3040   29.7780 C.3   180  MET180      0.0692
     76  N         42.8840   49.2430   23.7910 N.3   203  SER203     -0.1202
     77  CA        42.4680   50.5330   24.3280 C.3   203  SER203      0.2020
     78  C         42.5740   51.7070   23.3640 C.2   203  SER203      0.2618
     79  O         41.9470   52.7440   23.5810 O.2   203  SER203     -0.2717
     80  CB        43.2750   50.8590   25.5830 C.3   203  SER203      0.2103
     81  OG        42.9050   50.0080   26.6500 O.3   203  SER203     -0.2182
     82  N         43.3640   51.5560   22.3060 N.am  204  ASP204     -0.1973
     83  CA        43.5350   52.6410   21.3450 C.3   204  ASP204      0.1709
     84  C         44.5080   52.2880   20.2390 C.2   204  ASP204      0.2293
     85  O         45.1410   51.2360   20.2570 O.2   204  ASP204     -0.2864
     86  CB        44.0650   53.8860   22.0490 C.3   204  ASP204      0.1436
     87  CG        45.3800   53.6270   22.7600 C.2   204  ASP204      0.3671
     88  OD1       45.3520   53.0500   23.8730 O.co2 204  ASP204     -0.2456
     89  OD2       46.4400   53.9840   22.1980 O.co2 204  ASP204     -0.2456
     90  N         47.9230   53.3610   18.3150 N.3   206  ILE206     -0.1245
     91  CA        49.1230   54.1460   18.5190 C.3   206  ILE206      0.1561
     92  C         49.1550   55.2210   17.4400 C.2   206  ILE206      0.2260
     93  O         49.7520   56.2800   17.6180 O.2   206  ILE206     -0.2867
     94  CB        50.3680   53.2450   18.4360 C.3   206  ILE206      0.0252
     95  CG1       50.3750   52.3060   19.6430 C.3   206  ILE206      0.0019
     96  CG2       51.6330   54.0810   18.3760 C.3   206  ILE206      0.0019
     97  CD1       51.5010   51.3240   19.6570 C.3   206  ILE206      0.0001
@<TRIPOS>BOND
     1    44    43    2
     2    43    42    1
     3    42    41    1
     4    42    45    1
     5    45    46    1
     6    46    47   ar
     7    46    48   ar
     8    47    49   ar
     9    92    93    2
    10    92    91    1
    11    48    50   ar
    12    90    91    1
    13    96    94    1
    14    94    91    1
    15    94    95    1
    16    49    51   ar
    17    50    51   ar
    18    95    97    1
    19    58    56    1
    20    84    85    2
    21    84    83    1
    22    16    15    2
    23    15    14    1
    24    83    86    1
    25    83    82    1
    26    52    53    1
    27    56    53    1
    28    56    57    1
    29    14    13    1
    30    86    87    1
    31    53    54    1
    32    89    87   ar
    33    82    78   am
    34    87    88   ar
    35    12    11    1
    36    13     9   am
    37    10     9    2
    38    78    79    2
    39    78    77    1
    40     9     8    1
    41    54    55    2
    42    54    59   am
    43    76    77    1
    44    11     8    1
    45    77    80    1
    46    21    18    1
    47    59    60    1
    48     8     7    1
    49    33    32    2
    50    25    24    2
    51    18    17    1
    52    18    19    1
    53     7     3   am
    54    80    81    1
    55    28    27    1
    56    32    31    1
    57    62    61    2
    58    60    63    1
    59    60    61    1
    60    64    63    1
    61    64    65    1
    62    26    27    1
    63    26    23    1
    64    66    65   ar
    65    24    23    1
    66    24    30   am
    67    19    20    2
    68    61    68   am
    69    27    29    1
    70    65    67   ar
    71    31    30    1
    72    31    34    1
    73    22    23    1
    74     3     4    2
    75     3     2    1
    76    38    40   ar
    77    38    36   ar
    78    40    39   ar
    79    36    35   ar
    80    39    37   ar
    81    35    37   ar
    82    35    34    1
    83    68    69    1
    84     2     5    1
    85     2     1    1
    86     5     6    1
    87    73    72    1
    88    73    74    1
    89    69    72    1
    90    69    70    1
    91    74    75    1
    92    70    71    2
