@<TRIPOS>MOLECULE
tmp/1ou6A00.pdb
 153 146 0 0 0
SMALL
GASTEIGER

@<TRIPOS>ATOM
      1  N         23.2000   -7.7230   21.5940 N.3   142  MET142     -0.1230
      2  CA        23.8000   -8.6820   20.6700 C.3   142  MET142      0.1702
      3  C         22.8550   -9.8640   20.4890 C.2   142  MET142      0.2592
      4  O         22.6080  -10.3030   19.3690 O.2   142  MET142     -0.2718
      5  CB        25.1700   -9.1440   21.2070 C.3   142  MET142      0.0401
      6  CG        25.8460  -10.2680   20.4890 C.3   142  MET142      0.0596
      7  SD        27.2330  -10.9960   21.3870 S.3   142  MET142     -0.1393
      8  CE        26.3260  -11.9630   22.6310 C.3   142  MET142      0.0692
      9  N         22.3230  -10.3680   21.5960 N.am  143  ILE143     -0.1980
     10  CA        21.3810  -11.4790   21.5520 C.3   143  ILE143      0.1595
     11  C         20.0070  -11.0730   20.9800 C.2   143  ILE143      0.2287
     12  O         19.4550  -11.7750   20.1320 O.2   143  ILE143     -0.2864
     13  CB        21.2230  -12.1090   22.9480 C.3   143  ILE143      0.0276
     14  CG1       22.5260  -12.8190   23.3510 C.3   143  ILE143      0.0022
     15  CG2       20.1020  -13.1280   22.9640 C.3   143  ILE143      0.0022
     16  CD1       22.6200  -13.1580   24.8200 C.3   143  ILE143      0.0001
     17  N         20.6910  -12.1600   17.3640 N.3   147  LEU147     -0.1245
     18  CA        20.7160  -13.6280   17.4020 C.3   147  LEU147      0.1561
     19  C         19.3890  -14.3010   17.7370 C.2   147  LEU147      0.2260
     20  O         19.2720  -15.5380   17.7260 O.2   147  LEU147     -0.2867
     21  CB        21.7310  -14.0970   18.4330 C.3   147  LEU147      0.0270
     22  CG        23.1700  -13.6410   18.3430 C.3   147  LEU147      0.0019
     23  CD1       23.9060  -14.2020   19.5300 C.3   147  LEU147      0.0001
     24  CD2       23.8440  -14.0620   17.0600 C.3   147  LEU147      0.0001
     25  N         16.5530  -18.5750   19.8480 N.3   155  HIS155     -0.1226
     26  CA        17.8440  -18.2280   19.2600 C.3   155  HIS155      0.1752
     27  C         18.0440  -18.8960   17.9040 C.2   155  HIS155      0.2596
     28  O         17.3490  -19.8430   17.5460 O.2   155  HIS155     -0.2718
     29  CB        18.9770  -18.5850   20.2250 C.3   155  HIS155      0.0759
     30  CG        18.7760  -18.0380   21.6100 C.ar  155  HIS155      0.0818
     31  ND1       18.8090  -16.6860   21.8910 N.ar  155  HIS155     -0.2268
     32  CD2       18.5050  -18.6570   22.7860 C.ar  155  HIS155      0.1154
     33  CE1       18.5930  -16.5010   23.1840 C.ar  155  HIS155      0.1986
     34  NE2       18.4050  -17.6790   23.7490 N.ar  155  HIS155     -0.2212
     35  N         18.9990  -18.3750   17.1540 N.am  156  MET156     -0.1965
     36  CA        19.3210  -18.9010   15.8410 C.3   156  MET156      0.1736
     37  C         19.6800  -20.3900   15.9270 C.2   156  MET156      0.2617
     38  O         19.5080  -21.1010   14.9630 O.2   156  MET156     -0.2715
     39  CB        20.5060  -18.1260   15.2390 C.3   156  MET156      0.0427
     40  CG        20.1790  -16.7060   14.8660 C.3   156  MET156      0.0599
     41  SD        18.8470  -16.5910   13.6320 S.3   156  MET156     -0.1393
     42  CE        17.4260  -16.3330   14.6490 C.3   156  MET156      0.0692
     43  N         20.1910  -20.8340   17.0770 N.am  157  GLY157     -0.1955
     44  CA        20.5580  -22.2280   17.2950 C.3   157  GLY157      0.1869
     45  C         19.3760  -23.2000   17.2830 C.2   157  GLY157      0.2309
     46  O         19.5150  -24.3770   16.9620 O.2   157  GLY157     -0.2863
     47  N         40.1340  -17.0350   16.7180 N.3   217  TYR217     -0.1241
     48  CA        39.0900  -17.9720   17.1630 C.3   217  TYR217      0.1605
     49  C         39.4340  -19.3860   16.6980 C.2   217  TYR217      0.2264
     50  O         38.9790  -20.3620   17.3140 O.2   217  TYR217     -0.2867
     51  CB        37.7050  -17.5180   16.6760 C.3   217  TYR217      0.0534
     52  CG        36.5160  -18.2870   17.2510 C.ar  217  TYR217     -0.0201
     53  CD1       36.2950  -18.3960   18.6230 C.ar  217  TYR217     -0.0009
     54  CD2       35.6090  -18.8790   16.4060 C.ar  217  TYR217     -0.0009
     55  CE1       35.2120  -19.0950   19.1020 C.ar  217  TYR217      0.0417
     56  CE2       34.5340  -19.5650   16.8690 C.ar  217  TYR217      0.0417
     57  CZ        34.3330  -19.6880   18.2110 C.ar  217  TYR217      0.1957
     58  OH        33.2110  -20.3900   18.6270 O.3   217  TYR217     -0.2866
     59  N         23.3630  -27.3030   23.1670 N.3   233  ALA233     -0.1231
     60  CA        23.2910  -25.9670   23.7400 C.3   233  ALA233      0.1694
     61  C         21.8990  -25.3290   23.6900 C.2   233  ALA233      0.2592
     62  O         21.7170  -24.2480   24.2560 O.2   233  ALA233     -0.2718
     63  CB        24.2920  -25.0640   23.0220 C.3   233  ALA233      0.0304
     64  N         20.9440  -25.9750   23.0090 N.am  234  PHE234     -0.1976
     65  CA        19.6290  -25.3550   22.6910 C.3   234  PHE234      0.1639
     66  C         18.4120  -26.2610   22.9190 C.2   234  PHE234      0.2290
     67  O         17.3090  -25.7770   23.0820 O.2   234  PHE234     -0.2864
     68  CB        19.5780  -24.8800   21.2230 C.3   234  PHE234      0.0560
     69  CG        20.6500  -23.9060   20.8680 C.ar  234  PHE234     -0.0200
     70  CD1       20.5540  -22.5810   21.2720 C.ar  234  PHE234     -0.0042
     71  CD2       21.7720  -24.3120   20.1570 C.ar  234  PHE234     -0.0042
     72  CE1       21.5560  -21.6700   20.9660 C.ar  234  PHE234     -0.0003
     73  CE2       22.7960  -23.4010   19.8400 C.ar  234  PHE234     -0.0003
     74  CZ        22.6880  -22.0730   20.2540 C.ar  234  PHE234     -0.0000
     75  N         25.6200  -27.7650   19.2600 N.3   241  THR241     -0.1203
     76  CA        26.4350  -27.4350   20.4360 C.3   241  THR241      0.1994
     77  C         27.2170  -26.1610   20.1520 C.2   241  THR241      0.2617
     78  O         27.2290  -25.6630   19.0170 O.2   241  THR241     -0.2717
     79  CB        27.4760  -28.5320   20.6850 C.3   241  THR241      0.1784
     80  OG1       28.4060  -28.5190   19.5950 O.3   241  THR241     -0.2211
     81  CG2       26.8600  -29.9120   20.6580 C.3   241  THR241      0.0376
     82  N         27.9040  -25.6680   21.1790 N.am  242  ALA242     -0.1979
     83  CA        28.8940  -24.5820   21.0070 C.3   242  ALA242      0.1597
     84  C         30.0130  -24.9590   20.0190 C.2   242  ALA242      0.2287
     85  O         30.6010  -24.1090   19.3610 O.2   242  ALA242     -0.2864
     86  CB        29.5270  -24.2400   22.3650 C.3   242  ALA242      0.0319
     87  N         28.6060  -25.0430   16.2090 N.3   245  ALA245     -0.1231
     88  CA        28.1420  -23.7300   15.7810 C.3   245  ALA245      0.1694
     89  C         29.3370  -22.7510   15.6970 C.2   245  ALA245      0.2593
     90  O         30.3910  -23.0180   16.2690 O.2   245  ALA245     -0.2718
     91  CB        27.0720  -23.2050   16.7770 C.3   245  ALA245      0.0304
     92  N         29.1470  -21.6280   15.0070 N.am  246  SER246     -0.1938
     93  CA        30.1200  -20.5650   14.9190 C.3   246  SER246      0.2055
     94  C         30.0540  -19.7820   16.2260 C.2   246  SER246      0.2644
     95  O         29.3270  -20.1560   17.1450 O.2   246  SER246     -0.2714
     96  CB        29.8750  -19.6530   13.7230 C.3   246  SER246      0.2130
     97  OG        30.9520  -18.7390   13.5420 O.3   246  SER246     -0.2179
     98  N         30.8840  -18.7580   16.3420 N.am  247  GLY247     -0.1939
     99  CA        30.9880  -18.0300   17.5870 C.3   247  GLY247      0.2014
    100  C         30.3940  -16.6480   17.4700 C.2   247  GLY247      0.2638
    101  O         29.6910  -16.3110   16.4950 O.2   247  GLY247     -0.2714
    102  N         30.6890  -15.8850   18.5160 N.am  248  LEU248     -0.1977
    103  CA        30.4120  -14.4750   18.6440 C.3   248  LEU248      0.1596
    104  C         31.7620  -13.7880   18.4060 C.2   248  LEU248      0.2287
    105  O         32.7330  -14.1140   19.0670 O.2   248  LEU248     -0.2864
    106  CB        29.8860  -14.2000   20.0740 C.3   248  LEU248      0.0297
    107  CG        28.7600  -15.1370   20.5360 C.3   248  LEU248      0.0022
    108  CD1       28.4470  -15.0390   22.0200 C.3   248  LEU248      0.0001
    109  CD2       27.5150  -14.8570   19.7170 C.3   248  LEU248      0.0001
    110  N         15.8500  -20.8490    8.7440 N.3   287  MET287     -0.1245
    111  CA        16.6030  -19.7580    8.0910 C.3   287  MET287      0.1570
    112  C         17.9290  -20.2330    7.5290 C.2   287  MET287      0.2261
    113  O         18.4090  -19.6810    6.5390 O.2   287  MET287     -0.2867
    114  CB        16.8650  -18.6170    9.0760 C.3   287  MET287      0.0387
    115  CG        17.8240  -18.9990   10.2200 C.3   287  MET287      0.0595
    116  SD        19.5050  -18.4580    9.8360 S.3   287  MET287     -0.1393
    117  CE        20.5480  -19.2000   11.2010 C.3   287  MET287      0.0692
    118  N         27.1520  -20.9440    9.6380 N.3   317  ALA317     -0.1231
    119  CA        26.4770  -20.4930   10.8580 C.3   317  ALA317      0.1694
    120  C         26.4520  -21.6220   11.8500 C.2   317  ALA317      0.2592
    121  O         26.7930  -21.4650   13.0410 O.2   317  ALA317     -0.2718
    122  CB        25.0350  -20.0140   10.5360 C.3   317  ALA317      0.0304
    123  N         26.0140  -22.7690   11.3610 N.am  318  PHE318     -0.1976
    124  CA        25.9540  -23.9720   12.1650 C.3   318  PHE318      0.1639
    125  C         26.2880  -25.1410   11.2520 C.2   318  PHE318      0.2290
    126  O         25.9380  -25.1090   10.0870 O.2   318  PHE318     -0.2864
    127  CB        24.5540  -24.1630   12.7330 C.3   318  PHE318      0.0560
    128  CG        24.0610  -23.0160   13.5330 C.ar  318  PHE318     -0.0200
    129  CD1       24.2450  -22.9980   14.9090 C.ar  318  PHE318     -0.0042
    130  CD2       23.3850  -21.9660   12.9240 C.ar  318  PHE318     -0.0042
    131  CE1       23.7970  -21.9580   15.6730 C.ar  318  PHE318     -0.0003
    132  CE2       22.9250  -20.8940   13.6840 C.ar  318  PHE318     -0.0003
    133  CZ        23.1510  -20.8890   15.0780 C.ar  318  PHE318     -0.0000
    134  N         32.1920  -15.5460   13.4870 N.3   347  HIS347     -0.1241
    135  CA        31.0200  -14.9940   12.8050 C.3   347  HIS347      0.1621
    136  C         30.6800  -13.5780   13.2890 C.2   347  HIS347      0.2264
    137  O         29.7220  -13.3980   14.0570 O.2   347  HIS347     -0.2867
    138  CB        29.8170  -15.9560   12.9630 C.3   347  HIS347      0.0745
    139  CG        28.6460  -15.6190   12.0760 C.ar  347  HIS347      0.0817
    140  ND1       28.7770  -15.0040   10.8530 N.ar  347  HIS347     -0.2268
    141  CD2       27.3170  -15.7720   12.2650 C.ar  347  HIS347      0.1154
    142  CE1       27.5840  -14.8190   10.3140 C.ar  347  HIS347      0.1986
    143  NE2       26.6800  -15.2710   11.1580 N.ar  347  HIS347     -0.2212
    144  N         23.3200  -17.8220    5.0150 N.3   377  CYS377     -0.1235
    145  CA        21.9930  -17.8350    5.6140 C.3   377  CYS377      0.1677
    146  C         21.7900  -16.5790    6.4600 C.2   377  CYS377      0.2270
    147  O         22.7370  -15.9770    6.8870 O.2   377  CYS377     -0.2867
    148  CB        21.7750  -19.0820    6.4800 C.3   377  CYS377      0.0956
    149  SG        22.7510  -19.2140    8.0050 S.3   377  CYS377     -0.0801
    150  N         19.2270  -14.7970    9.5060 N.3   379  GLY379     -0.1225
    151  CA        18.1260  -14.8450   10.4500 C.3   379  GLY379      0.1811
    152  C         16.8700  -14.1020   10.0120 C.2   379  GLY379      0.2280
    153  O         16.8760  -13.1000    9.2690 O.2   379  GLY379     -0.2866
@<TRIPOS>BOND
     1   144   145    1
     2   145   146    1
     3   145   148    1
     4   146   147    2
     5   148   149    1
     6   113   112    2
     7   112   111    1
     8   111   110    1
     9   111   114    1
    10   114   115    1
    11   153   152    2
    12   150   151    1
    13   118   119    1
    14   116   115    1
    15   116   117    1
    16   152   151    1
    17   126   125    2
    18   142   140   ar
    19   142   143   ar
    20   122   119    1
    21   140   139   ar
    22   119   120    1
    23   143   141   ar
    24   125   124    1
    25   123   120   am
    26   123   124    1
    27   120   121    2
    28   139   141   ar
    29   139   138    1
    30   124   127    1
    31   127   128    1
    32   135   138    1
    33   135   136    1
    34   135   134    1
    35   130   128   ar
    36   130   132   ar
    37   136   137    2
    38   128   129   ar
    39    97    96    1
    40    41    42    1
    41    41    40    1
    42   132   133   ar
    43    96    93    1
    44    40    39    1
    45   129   131   ar
    46    93    92    1
    47    93    94    1
    48    38    37    2
    49    92    89   am
    50   133   131   ar
    51    39    36    1
    52    89    88    1
    53    89    90    2
    54    88    87    1
    55    88    91    1
    56    36    37    1
    57    36    35    1
    58    37    43   am
    59    94    98   am
    60    94    95    2
    61    98    99    1
    62    54    56   ar
    63    54    52   ar
    64   101   100    2
    65    51    48    1
    66    51    52    1
    67    49    48    1
    68    49    50    2
    69    47    48    1
    70    56    57   ar
    71    46    45    2
    72    24    22    1
    73    43    44    1
    74    35    27   am
    75    52    53   ar
    76    45    44    1
    77    17    18    1
    78    18    19    1
    79    18    21    1
    80   100    99    1
    81   100   102   am
    82    28    27    2
    83    20    19    2
    84    27    26    1
    85    57    58    1
    86    57    55   ar
    87    22    21    1
    88    22    23    1
    89   104   103    1
    90   104   105    2
    91   102   103    1
    92    53    55   ar
    93   103   106    1
    94    78    77    2
    95    75    76    1
    96    26    25    1
    97    26    29    1
    98    85    84    2
    99     4     3    2
   100    80    79    1
   101   109   107    1
   102    73    71   ar
   103    73    74   ar
   104    84    83    1
   105   106   107    1
   106    12    11    2
   107    77    76    1
   108    77    82   am
   109    71    69   ar
   110    29    30    1
   111    74    72   ar
   112    76    79    1
   113     6     5    1
   114     6     7    1
   115     3     2    1
   116     3     9   am
   117   107   108    1
   118    81    79    1
   119     2     5    1
   120     2     1    1
   121    69    68    1
   122    69    70   ar
   123    72    70   ar
   124    11    10    1
   125    83    82    1
   126    83    86    1
   127    68    65    1
   128     7     8    1
   129    10     9    1
   130    10    13    1
   131    30    31   ar
   132    30    32   ar
   133    31    33   ar
   134    65    66    1
   135    65    64    1
   136    32    34   ar
   137    66    67    2
   138    13    15    1
   139    13    14    1
   140    64    61   am
   141    63    60    1
   142    59    60    1
   143    33    34   ar
   144    14    16    1
   145    61    60    1
   146    61    62    2
