@<TRIPOS>MOLECULE
tmp/1ou8B00.pdb
 178 175 0 0 0
SMALL
GASTEIGER

@<TRIPOS>ATOM
      1  N          4.8240   11.2470   37.2170 N.3    24  TYR24      -0.1241
      2  CA         3.5590   11.4010   36.5020 C.3    24  TYR24       0.1605
      3  C          2.4290   11.4310   37.5280 C.2    24  TYR24       0.2264
      4  O          2.3230   10.5390   38.3750 O.2    24  TYR24      -0.2867
      5  CB         3.3450   10.2320   35.5280 C.3    24  TYR24       0.0534
      6  CG         3.9030   10.4540   34.1370 C.ar   24  TYR24      -0.0201
      7  CD1        4.9630   11.3310   33.9160 C.ar   24  TYR24      -0.0009
      8  CD2        3.3790    9.7650   33.0410 C.ar   24  TYR24      -0.0009
      9  CE1        5.4890   11.5210   32.6370 C.ar   24  TYR24       0.0417
     10  CE2        3.8980    9.9450   31.7610 C.ar   24  TYR24       0.0417
     11  CZ         4.9510   10.8220   31.5660 C.ar   24  TYR24       0.1957
     12  OH         5.4740   11.0000   30.3050 O.3    24  TYR24      -0.2866
     13  N         -7.3740   17.7830   26.8500 N.3    40  TYR40      -0.1241
     14  CA        -6.4760   16.6870   27.1870 C.3    40  TYR40       0.1605
     15  C         -7.0480   15.6970   28.1890 C.2    40  TYR40       0.2264
     16  O         -6.3920   14.7180   28.5430 O.2    40  TYR40      -0.2867
     17  CB        -5.1410   17.2390   27.6950 C.3    40  TYR40       0.0534
     18  CG        -4.3940   18.0090   26.6350 C.ar   40  TYR40      -0.0201
     19  CD1       -4.7550   19.3160   26.3080 C.ar   40  TYR40      -0.0009
     20  CD2       -3.3590   17.4120   25.9160 C.ar   40  TYR40      -0.0009
     21  CE1       -4.1060   20.0080   25.2890 C.ar   40  TYR40       0.0417
     22  CE2       -2.7050   18.0930   24.8960 C.ar   40  TYR40       0.0417
     23  CZ        -3.0830   19.3880   24.5870 C.ar   40  TYR40       0.1957
     24  OH        -2.4410   20.0550   23.5710 O.3    40  TYR40      -0.2866
     25  N         -6.6840   12.9770   33.7220 N.3    46  ILE46      -0.1231
     26  CA        -5.6020   13.5730   32.9620 C.3    46  ILE46       0.1692
     27  C         -4.3090   13.1970   33.6770 C.2    46  ILE46       0.2592
     28  O         -4.2660   13.1530   34.9040 O.2    46  ILE46      -0.2718
     29  CB        -5.7440   15.1220   32.8570 C.3    46  ILE46       0.0266
     30  CG1       -4.6670   15.6750   31.9180 C.3    46  ILE46       0.0019
     31  CG2       -5.6540   15.7670   34.2380 C.3    46  ILE46       0.0020
     32  CD1       -4.8340   17.1520   31.5810 C.3    46  ILE46       0.0001
     33  N         -3.2780   12.8880   32.9010 N.am   47  VAL47      -0.1966
     34  CA        -1.9790   12.5160   33.4490 C.3    47  VAL47       0.1727
     35  C         -1.0270   13.6640   33.1520 C.2    47  VAL47       0.2616
     36  O         -0.9490   14.1380   32.0150 O.2    47  VAL47      -0.2715
     37  CB        -1.4480   11.2220   32.8000 C.3    47  VAL47       0.0290
     38  CG1       -0.0900   10.8660   33.3820 C.3    47  VAL47       0.0023
     39  CG2       -2.4330   10.0910   33.0350 C.3    47  VAL47       0.0023
     40  N         -0.3020   14.1060   34.1750 N.am   48  LEU48      -0.1963
     41  CA         0.6080   15.2320   34.0270 C.3    48  LEU48       0.1728
     42  C          2.0460   14.9330   34.4300 C.2    48  LEU48       0.2616
     43  O          2.3020   14.3430   35.4800 O.2    48  LEU48      -0.2715
     44  CB         0.0820   16.4020   34.8560 C.3    48  LEU48       0.0311
     45  CG        -1.3430   16.8420   34.5090 C.3    48  LEU48       0.0022
     46  CD1       -1.9540   17.6380   35.6570 C.3    48  LEU48       0.0001
     47  CD2       -1.3000   17.6550   33.2320 C.3    48  LEU48       0.0001
     48  N          2.9740   15.3560   33.5790 N.am   49  ASN49      -0.1972
     49  CA         4.4050   15.1860   33.8010 C.3    49  ASN49       0.1688
     50  C          4.8080   16.3210   34.7410 C.2    49  ASN49       0.2292
     51  O          4.7980   17.4850   34.3380 O.2    49  ASN49      -0.2864
     52  CB         5.1380   15.3320   32.4660 C.3    49  ASN49       0.1181
     53  CG         6.6330   15.1390   32.5870 C.2    49  ASN49       0.2629
     54  OD1        7.2210   15.3630   33.6440 O.2    49  ASN49      -0.2716
     55  ND2        7.2630   14.7420   31.4870 N.am   49  ASN49      -0.0877
     56  N         10.7880   18.7510   36.7120 N.3    52  ALA52      -0.1231
     57  CA        11.1900   20.1470   36.6150 C.3    52  ALA52       0.1694
     58  C         11.3450   20.5390   35.1420 C.2    52  ALA52       0.2593
     59  O         11.0580   21.6710   34.7570 O.2    52  ALA52      -0.2718
     60  CB        12.5060   20.3710   37.3610 C.3    52  ALA52       0.0304
     61  N         11.7850   19.5970   34.3140 N.am   53  SER53      -0.1938
     62  CA        11.9780   19.8900   32.9020 C.3    53  SER53       0.2055
     63  C         10.6760   20.1730   32.1600 C.2    53  SER53       0.2643
     64  O         10.6620   20.9580   31.2170 O.2    53  SER53      -0.2714
     65  CB        12.7230   18.7400   32.2120 C.3    53  SER53       0.2130
     66  OG        11.9780   17.5390   32.2650 O.3    53  SER53      -0.2179
     67  N          9.5850   19.5520   32.6000 N.am   54  ALA54      -0.1963
     68  CA         8.2880   19.7210   31.9470 C.3    54  ALA54       0.1728
     69  C          7.3630   20.7310   32.6160 C.2    54  ALA54       0.2617
     70  O          6.2160   20.9120   32.1880 O.2    54  ALA54      -0.2715
     71  CB         7.5830   18.3680   31.8610 C.3    54  ALA54       0.0334
     72  N          7.8450   21.3910   33.6620 N.am   55  THR55      -0.1937
     73  CA         7.0120   22.3530   34.3730 C.3    55  THR55       0.2028
     74  C          7.7770   23.6030   34.7650 C.2    55  THR55       0.2643
     75  O          8.9930   23.6890   34.6000 O.2    55  THR55      -0.2714
     76  CB         6.4410   21.7490   35.6750 C.3    55  THR55       0.1808
     77  OG1        7.5180   21.4740   36.5820 O.3    55  THR55      -0.2208
     78  CG2        5.6880   20.4530   35.3920 C.3    55  THR55       0.0379
     79  N          7.0320   24.5720   35.2800 N.am   56  GLY56      -0.1939
     80  CA         7.6220   25.8080   35.7490 C.3    56  GLY56       0.2014
     81  C          6.9360   26.1990   37.0450 C.2    56  GLY56       0.2638
     82  O          5.7130   26.1000   37.1550 O.2    56  GLY56      -0.2714
     83  N          7.7200   26.6060   38.0400 N.am   57  ASN57      -0.1972
     84  CA         7.1820   27.0450   39.3290 C.3    57  ASN57       0.1688
     85  C          6.2750   26.0370   40.0430 C.2    57  ASN57       0.2292
     86  O          5.2650   26.4120   40.6490 O.2    57  ASN57      -0.2864
     87  CB         6.4230   28.3620   39.1340 C.3    57  ASN57       0.1181
     88  CG         7.2650   29.4220   38.4480 C.2    57  ASN57       0.2629
     89  OD1        8.1440   30.0250   39.0630 O.2    57  ASN57      -0.2716
     90  ND2        7.0090   29.6410   37.1650 N.am   57  ASN57      -0.0877
     91  N          1.1720   24.7780   38.9390 N.3    67  PHE67      -0.1227
     92  CA         2.3810   24.8800   38.1310 C.3    67  PHE67       0.1736
     93  C          2.0600   25.2930   36.7020 C.2    67  PHE67       0.2595
     94  O          0.9060   25.2630   36.2750 O.2    67  PHE67      -0.2718
     95  CB         3.1080   23.5260   38.1060 C.3    67  PHE67       0.0547
     96  CG         2.3040   22.4090   37.4790 C.ar   67  PHE67      -0.0202
     97  CD1        2.4800   22.0660   36.1380 C.ar   67  PHE67      -0.0042
     98  CD2        1.3690   21.7050   38.2320 C.ar   67  PHE67      -0.0042
     99  CE1        1.7330   21.0320   35.5590 C.ar   67  PHE67      -0.0003
    100  CE2        0.6180   20.6710   37.6640 C.ar   67  PHE67      -0.0003
    101  CZ         0.8020   20.3350   36.3240 C.ar   67  PHE67      -0.0000
    102  N          3.0950   25.6890   35.9740 N.am   68  ASN68      -0.1960
    103  CA         2.9390   26.0540   34.5760 C.3    68  ASN68       0.1819
    104  C          3.4410   24.8750   33.7540 C.2    68  ASN68       0.2621
    105  O          4.3850   24.1860   34.1510 O.2    68  ASN68      -0.2715
    106  CB         3.7640   27.3010   34.2550 C.3    68  ASN68       0.1195
    107  CG         3.2940   28.5130   35.0240 C.2    68  ASN68       0.2630
    108  OD1        2.1480   28.9390   34.8860 O.2    68  ASN68      -0.2716
    109  ND2        4.1740   29.0700   35.8500 N.am   68  ASN68      -0.0877
    110  N          2.7980   24.6350   32.6170 N.am   69  ALA69      -0.1963
    111  CA         3.1850   23.5500   31.7250 C.3    69  ALA69       0.1728
    112  C          2.8180   23.9770   30.3140 C.2    69  ALA69       0.2616
    113  O          1.9960   24.8660   30.1370 O.2    69  ALA69      -0.2715
    114  CB         2.4510   22.2710   32.0940 C.3    69  ALA69       0.0334
    115  N          3.4380   23.3620   29.3130 N.am   70  ARG70      -0.1963
    116  CA         3.1270   23.7130   27.9360 C.3    70  ARG70       0.1729
    117  C          2.3760   22.6080   27.2230 C.2    70  ARG70       0.2616
    118  O          2.5600   21.4260   27.5100 O.2    70  ARG70      -0.2715
    119  CB         4.4010   24.0580   27.1630 C.3    70  ARG70       0.0348
    120  CG         4.9620   25.4170   27.5250 C.3    70  ARG70       0.0492
    121  CD         6.2340   25.7220   26.7560 C.3    70  ARG70       0.2205
    122  NE         6.8610   26.9490   27.2340 N.pl3  70  ARG70      -0.0865
    123  CZ         6.3880   28.1700   27.0090 C.cat  70  ARG70       0.5346
    124  NH1        5.2790   28.3350   26.3010 N.pl3  70  ARG70       0.1354
    125  NH2        7.0180   29.2260   27.5070 N.pl3  70  ARG70       0.1354
    126  N          1.5170   23.0160   26.2960 N.am   71  PHE71      -0.1960
    127  CA         0.7200   22.0950   25.5040 C.3    71  PHE71       0.1771
    128  C          0.8550   22.5720   24.0640 C.2    71  PHE71       0.2619
    129  O          0.2810   23.5910   23.6770 O.2    71  PHE71      -0.2715
    130  CB        -0.7380   22.1270   25.9770 C.3    71  PHE71       0.0574
    131  CG        -0.9000   21.7920   27.4390 C.ar   71  PHE71      -0.0200
    132  CD1       -0.6740   22.7540   28.4170 C.ar   71  PHE71      -0.0042
    133  CD2       -1.2180   20.4960   27.8340 C.ar   71  PHE71      -0.0042
    134  CE1       -0.7600   22.4300   29.7740 C.ar   71  PHE71      -0.0003
    135  CE2       -1.3060   20.1600   29.1890 C.ar   71  PHE71      -0.0003
    136  CZ        -1.0760   21.1290   30.1580 C.ar   71  PHE71      -0.0000
    137  N          1.6350   21.8330   23.2800 N.am   72  LYS72      -0.1963
    138  CA         1.8940   22.2030   21.8950 C.3    72  LYS72       0.1728
    139  C          2.5230   23.5950   21.8860 C.2    72  LYS72       0.2616
    140  O          2.1990   24.4470   21.0540 O.2    72  LYS72      -0.2715
    141  CB         0.5990   22.1760   21.0760 C.3    72  LYS72       0.0311
    142  CG         0.0340   20.7750   20.9020 C.3    72  LYS72       0.0038
    143  CD        -1.2580   20.7770   20.0970 C.3    72  LYS72       0.0206
    144  CE        -1.7290   19.3580   19.8080 C.3    72  LYS72       0.1093
    145  NZ        -1.9100   18.5530   21.0490 N.3    72  LYS72      -0.1314
    146  N          3.4250   23.8160   22.8390 N.am   73  GLY73      -0.1955
    147  CA         4.1180   25.0870   22.9370 C.3    73  GLY73       0.1869
    148  C          3.4200   26.1970   23.7010 C.2    73  GLY73       0.2309
    149  O          4.0460   27.2030   24.0270 O.2    73  GLY73      -0.2863
    150  N          1.8880   27.7810   26.9800 N.3    75  SER75      -0.1217
    151  CA         1.9330   27.6450   28.4310 C.3    75  SER75       0.1889
    152  C          0.5760   27.9460   29.0660 C.2    75  SER75       0.2288
    153  O         -0.1030   28.8990   28.6860 O.2    75  SER75      -0.2866
    154  CB         2.9970   28.5790   29.0250 C.3    75  SER75       0.2089
    155  OG         3.1160   28.3860   30.4310 O.3    75  SER75      -0.2183
    156  N          3.3690    8.3000   39.9680 N.3    89  TYR89      -0.1241
    157  CA         4.2340    7.1690   39.6630 C.3    89  TYR89       0.1605
    158  C          5.3330    7.5190   38.6740 C.2    89  TYR89       0.2264
    159  O          5.3310    8.5930   38.0700 O.2    89  TYR89      -0.2867
    160  CB         3.3860    6.0230   39.1030 C.3    89  TYR89       0.0534
    161  CG         2.7430    6.3320   37.7680 C.ar   89  TYR89      -0.0201
    162  CD1        3.4230    6.0920   36.5730 C.ar   89  TYR89      -0.0009
    163  CD2        1.4610    6.8810   37.6970 C.ar   89  TYR89      -0.0009
    164  CE1        2.8440    6.3890   35.3390 C.ar   89  TYR89       0.0417
    165  CE2        0.8720    7.1830   36.4650 C.ar   89  TYR89       0.0417
    166  CZ         1.5680    6.9340   35.2940 C.ar   89  TYR89       0.1957
    167  OH         0.9930    7.2250   34.0760 O.3    89  TYR89      -0.2866
    168  N          7.1810    7.3300   35.2200 N.3    91  ARG91      -0.1245
    169  CA         6.8230    7.0560   33.8390 C.3    91  ARG91       0.1563
    170  C          7.6020    5.8340   33.3610 C.2    91  ARG91       0.2260
    171  O          7.0770    4.9920   32.6290 O.2    91  ARG91      -0.2867
    172  CB         7.1560    8.2710   32.9660 C.3    91  ARG91       0.0307
    173  CG         6.8940    8.0820   31.4780 C.3    91  ARG91       0.0489
    174  CD         8.0780    7.4440   30.7760 C.3    91  ARG91       0.2205
    175  NE         9.2710    8.2830   30.8550 N.pl3  91  ARG91      -0.0865
    176  CZ         9.3470    9.5220   30.3790 C.cat  91  ARG91       0.5346
    177  NH1        8.2970   10.0730   29.7850 N.pl3  91  ARG91       0.1354
    178  NH2       10.4760   10.2110   30.4950 N.pl3  91  ARG91       0.1354
@<TRIPOS>BOND
     1   144   143    1
     2   144   145    1
     3   143   142    1
     4   142   141    1
     5   140   139    2
     6   141   138    1
     7   139   138    1
     8   139   146   am
     9   138   137    1
    10   146   147    1
    11   147   148    1
    12   137   128   am
    13    24    23    1
    14   129   128    2
    15   148   149    2
    16   128   127    1
    17    23    22   ar
    18    23    21   ar
    19    22    20   ar
    20    21    19   ar
    21   127   130    1
    22   127   126    1
    23    20    18   ar
    24   130   131    1
    25   126   117   am
    26   124   123    1
    27    19    18   ar
    28    18    17    1
    29   121   122    1
    30   121   120    1
    31    13    14    1
    32   150   151    1
    33   123   122    2
    34   123   125    1
    35   119   120    1
    36   119   116    1
    37    14    17    1
    38    14    15    1
    39   117   118    2
    40   117   116    1
    41   131   133   ar
    42   131   132   ar
    43   133   135   ar
    44   116   115    1
    45    15    16    2
    46   132   134   ar
    47   151   154    1
    48   151   152    1
    49   153   152    2
    50   154   155    1
    51   135   136   ar
    52   115   112   am
    53   134   136   ar
    54   177   176    1
    55   113   112    2
    56    12    11    1
    57   112   111    1
    58   176   178    1
    59   176   175    2
    60   174   175    1
    61   174   173    1
    62    64    63    2
    63   173   172    1
    64    55    53   am
    65    11    10   ar
    66    11     9   ar
    67    32    30    1
    68   111   114    1
    69   111   110    1
    70    10     8   ar
    71    71    68    1
    72    30    29    1
    73    68    67    1
    74    68    69    1
    75    36    35    2
    76    63    67   am
    77    63    62    1
    78    70    69    2
    79    65    66    1
    80    65    62    1
    81    52    53    1
    82    52    49    1
    83    53    54    2
    84    69    72   am
    85   110   104   am
    86   171   170    2
    87     9     7   ar
    88    37    39    1
    89    37    38    1
    90    37    34    1
    91    29    26    1
    92    29    31    1
    93    33    34    1
    94    33    27   am
    95    62    61    1
    96    26    27    1
    97    26    25    1
    98   172   169    1
    99     8     6   ar
   100    35    34    1
   101    35    40   am
   102    47    45    1
   103   170   169    1
   104    48    49    1
   105    48    42   am
   106    72    73    1
   107    27    28    2
   108   104   105    2
   109   104   103    1
   110    49    50    1
   111   169   168    1
   112     7     6   ar
   113    41    40    1
   114    41    42    1
   115    41    44    1
   116   167   166    1
   117     6     5    1
   118   106   103    1
   119   106   107    1
   120    61    58   am
   121    51    50    2
   122    73    74    1
   123    73    76    1
   124    42    43    2
   125    45    44    1
   126    45    46    1
   127   103   102    1
   128    75    74    2
   129    59    58    2
   130    74    79   am
   131   108   107    2
   132   107   109   am
   133    58    57    1
   134    79    80    1
   135   166   164   ar
   136   166   165   ar
   137   164   162   ar
   138    78    76    1
   139     5     2    1
   140    99    97   ar
   141    99   101   ar
   142    76    77    1
   143    80    81    1
   144   102    93   am
   145    97    96   ar
   146    94    93    2
   147   101   100   ar
   148   165   163   ar
   149     2     1    1
   150     2     3    1
   151   162   161   ar
   152    57    56    1
   153    57    60    1
   154    93    92    1
   155    81    82    2
   156    81    83   am
   157    90    88   am
   158    96    95    1
   159    96    98   ar
   160     3     4    2
   161   100    98   ar
   162   163   161   ar
   163   161   160    1
   164    83    84    1
   165   159   158    2
   166    95    92    1
   167    92    91    1
   168    88    89    2
   169    88    87    1
   170   158   157    1
   171   160   157    1
   172    87    84    1
   173    84    85    1
   174   157   156    1
   175    85    86    2
