@<TRIPOS>MOLECULE
tmp/1ou8A00.pdb
 185 180 0 0 0
SMALL
GASTEIGER

@<TRIPOS>ATOM
      1  N          0.1770   51.6080  100.5140 N.3    24  TYR24      -0.1241
      2  CA        -0.3060   50.2350  100.5960 C.3    24  TYR24       0.1605
      3  C         -0.7870   49.8050   99.2130 C.2    24  TYR24       0.2264
      4  O         -1.6480   50.4570   98.6210 O.2    24  TYR24      -0.2867
      5  CB        -1.4640   50.1360  101.5920 C.3    24  TYR24       0.0534
      6  CG        -1.0550   49.9060  103.0340 C.ar   24  TYR24      -0.0201
      7  CD1        0.2580   50.1060  103.4590 C.ar   24  TYR24      -0.0009
      8  CD2       -1.9960   49.4900  103.9780 C.ar   24  TYR24      -0.0009
      9  CE1        0.6270   49.8930  104.7950 C.ar   24  TYR24       0.0417
     10  CE2       -1.6410   49.2790  105.3080 C.ar   24  TYR24       0.0417
     11  CZ        -0.3330   49.4800  105.7090 C.ar   24  TYR24       0.1957
     12  OH         0.0110   49.2600  107.0260 O.3    24  TYR24      -0.2866
     13  N          0.0340   34.5090  103.4730 N.3    40  TYR40      -0.1241
     14  CA        -0.4740   35.8330  103.8230 C.3    40  TYR40       0.1605
     15  C         -1.6090   36.2970  102.9200 C.2    40  TYR40       0.2264
     16  O         -2.1160   37.4100  103.0680 O.2    40  TYR40      -0.2867
     17  CB         0.6570   36.8630  103.7960 C.3    40  TYR40       0.0534
     18  CG         1.6520   36.6780  104.9140 C.ar   40  TYR40      -0.0201
     19  CD1        2.6170   35.6760  104.8540 C.ar   40  TYR40      -0.0009
     20  CD2        1.6000   37.4780  106.0560 C.ar   40  TYR40      -0.0009
     21  CE1        3.5070   35.4700  105.9040 C.ar   40  TYR40       0.0417
     22  CE2        2.4850   37.2810  107.1140 C.ar   40  TYR40       0.0417
     23  CZ         3.4340   36.2750  107.0310 C.ar   40  TYR40       0.1957
     24  OH         4.3060   36.0660  108.0750 O.3    40  TYR40      -0.2866
     25  N         -5.3500   36.4640  101.5980 N.3    42  LYS42      -0.1245
     26  CA        -6.6850   36.3430  102.1700 C.3    42  LYS42       0.1561
     27  C         -7.7210   36.8840  101.1980 C.2    42  LYS42       0.2260
     28  O         -7.5360   37.9540  100.6180 O.2    42  LYS42      -0.2867
     29  CB        -6.7880   37.1260  103.4830 C.3    42  LYS42       0.0271
     30  CG        -5.8730   36.6450  104.5940 C.3    42  LYS42       0.0035
     31  CD        -6.3080   37.2140  105.9450 C.3    42  LYS42       0.0206
     32  CE        -6.2230   38.7370  105.9900 C.3    42  LYS42       0.1093
     33  NZ        -4.8200   39.2280  105.9070 N.3    42  LYS42      -0.1314
     34  N         -3.9040   40.3630   98.7090 N.3    46  ILE46      -0.1231
     35  CA        -2.8780   40.6210   99.7030 C.3    46  ILE46       0.1692
     36  C         -2.5310   42.1070   99.6250 C.2    46  ILE46       0.2592
     37  O         -2.4820   42.6890   98.5350 O.2    46  ILE46      -0.2718
     38  CB        -1.6110   39.7590   99.4740 C.3    46  ILE46       0.0266
     39  CG1       -0.6570   39.9320  100.6580 C.3    46  ILE46       0.0019
     40  CG2       -0.9280   40.1450   98.1740 C.3    46  ILE46       0.0020
     41  CD1        0.5310   38.9960  100.6280 C.3    46  ILE46       0.0001
     42  N         -2.3310   42.7180  100.7870 N.am   47  VAL47      -0.1966
     43  CA        -1.9890   44.1340  100.8720 C.3    47  VAL47       0.1727
     44  C         -0.5230   44.2230  101.2450 C.2    47  VAL47       0.2616
     45  O         -0.0760   43.5780  102.1960 O.2    47  VAL47      -0.2715
     46  CB        -2.8340   44.8560  101.9470 C.3    47  VAL47       0.0290
     47  CG1       -2.3810   46.3020  102.0890 C.3    47  VAL47       0.0023
     48  CG2       -4.3040   44.7980  101.5680 C.3    47  VAL47       0.0023
     49  N          0.2250   45.0240  100.4950 N.am   48  LEU48      -0.1963
     50  CA         1.6490   45.1600  100.7380 C.3    48  LEU48       0.1728
     51  C          2.1040   46.5940  100.9920 C.2    48  LEU48       0.2616
     52  O          1.7230   47.5180  100.2690 O.2    48  LEU48      -0.2715
     53  CB         2.4170   44.5770   99.5520 C.3    48  LEU48       0.0311
     54  CG         2.1670   43.0840   99.3040 C.3    48  LEU48       0.0022
     55  CD1        2.6200   42.7070   97.9060 C.3    48  LEU48       0.0001
     56  CD2        2.9020   42.2660  100.3570 C.3    48  LEU48       0.0001
     57  N          2.9190   46.7590  102.0310 N.am   49  ASN49      -0.1972
     58  CA         3.4770   48.0570  102.4090 C.3    49  ASN49       0.1688
     59  C          4.6620   48.2860  101.4740 C.2    49  ASN49       0.2292
     60  O          5.6540   47.5570  101.5320 O.2    49  ASN49      -0.2864
     61  CB         3.9470   48.0080  103.8710 C.3    49  ASN49       0.1181
     62  CG         4.5610   49.3150  104.3470 C.2    49  ASN49       0.2629
     63  OD1        5.0630   50.1110  103.5570 O.2    49  ASN49      -0.2716
     64  ND2        4.5440   49.5290  105.6580 N.am   49  ASN49      -0.0877
     65  N          6.5170   51.1450  101.2640 N.3    51  SER51      -0.1217
     66  CA         7.4130   52.2080  101.7060 C.3    51  SER51       0.1889
     67  C          8.8470   51.7100  101.5780 C.2    51  SER51       0.2288
     68  O          9.0960   50.5080  101.6270 O.2    51  SER51      -0.2866
     69  CB         7.1340   52.5730  103.1660 C.3    51  SER51       0.2089
     70  OG         7.4690   51.5010  104.0340 O.3    51  SER51      -0.2183
     71  N         10.9980   51.9140  103.6920 N.3    53  SER53      -0.1202
     72  CA        11.3100   51.3160  104.9850 C.3    53  SER53       0.2020
     73  C         10.9790   49.8260  105.0600 C.2    53  SER53       0.2619
     74  O         11.7420   49.0410  105.6290 O.2    53  SER53      -0.2717
     75  CB        10.5570   52.0610  106.0910 C.3    53  SER53       0.2103
     76  OG        10.7010   51.4110  107.3390 O.3    53  SER53      -0.2182
     77  N          9.8510   49.4440  104.4710 N.am   54  ALA54      -0.1965
     78  CA         9.3810   48.0600  104.4910 C.3    54  ALA54       0.1728
     79  C          9.7880   47.2220  103.2830 C.2    54  ALA54       0.2617
     80  O          9.4020   46.0570  103.1750 O.2    54  ALA54      -0.2715
     81  CB         7.8550   48.0480  104.6280 C.3    54  ALA54       0.0334
     82  N         10.5680   47.7980  102.3780 N.am   55  THR55      -0.1937
     83  CA        10.9670   47.0680  101.1830 C.3    55  THR55       0.2028
     84  C         12.4350   47.2440  100.8450 C.2    55  THR55       0.2643
     85  O         13.1370   48.0520  101.4490 O.2    55  THR55      -0.2714
     86  CB        10.1620   47.5370   99.9510 C.3    55  THR55       0.1808
     87  OG1       10.4190   48.9290   99.7310 O.3    55  THR55      -0.2208
     88  CG2        8.6610   47.3240  100.1640 C.3    55  THR55       0.0379
     89  N         12.8790   46.4630   99.8680 N.am   56  GLY56      -0.1939
     90  CA        14.2440   46.5430   99.3950 C.3    56  GLY56       0.2014
     91  C         14.2440   46.4440   97.8770 C.2    56  GLY56       0.2638
     92  O         13.5370   45.6120   97.3100 O.2    56  GLY56      -0.2714
     93  N         15.0160   47.3040   97.2200 N.am   57  ASN57      -0.1972
     94  CA        15.1390   47.2920   95.7620 C.3    57  ASN57       0.1688
     95  C         13.8070   47.3520   95.0140 C.2    57  ASN57       0.2292
     96  O         13.6140   46.6600   94.0110 O.2    57  ASN57      -0.2864
     97  CB        15.9020   46.0370   95.3290 C.3    57  ASN57       0.1181
     98  CG        17.1330   45.7840   96.1790 C.2    57  ASN57       0.2629
     99  OD1       18.0810   46.5700   96.1720 O.2    57  ASN57      -0.2716
    100  ND2       17.1200   44.6840   96.9260 N.am   57  ASN57      -0.0877
    101  N         10.1620   43.5740   94.3250 N.3    67  PHE67      -0.1227
    102  CA        10.8650   44.0670   95.4980 C.3    67  PHE67       0.1736
    103  C         11.0440   42.9800   96.5390 C.2    67  PHE67       0.2595
    104  O         10.3990   41.9360   96.4870 O.2    67  PHE67      -0.2718
    105  CB        10.0860   45.2290   96.1250 C.3    67  PHE67       0.0547
    106  CG         8.7050   44.8540   96.6060 C.ar   67  PHE67      -0.0202
    107  CD1        8.4820   44.5140   97.9380 C.ar   67  PHE67      -0.0042
    108  CD2        7.6250   44.8580   95.7300 C.ar   67  PHE67      -0.0042
    109  CE1        7.2020   44.1890   98.3910 C.ar   67  PHE67      -0.0003
    110  CE2        6.3430   44.5350   96.1700 C.ar   67  PHE67      -0.0003
    111  CZ         6.1310   44.1990   97.5090 C.ar   67  PHE67      -0.0000
    112  N         11.9360   43.2370   97.4850 N.am   68  ASN68      -0.1960
    113  CA        12.1660   42.3050   98.5690 C.3    68  ASN68       0.1819
    114  C         11.4170   42.8480   99.7750 C.2    68  ASN68       0.2621
    115  O         11.2800   44.0620   99.9400 O.2    68  ASN68      -0.2715
    116  CB        13.6570   42.2100   98.8810 C.3    68  ASN68       0.1195
    117  CG        14.4510   41.6600   97.7220 C.2    68  ASN68       0.2630
    118  OD1       14.1860   40.5570   97.2440 O.2    68  ASN68      -0.2716
    119  ND2       15.4320   42.4270   97.2590 N.am   68  ASN68      -0.0877
    120  N         10.9180   41.9460  100.6090 N.am   69  ALA69      -0.1963
    121  CA        10.2020   42.3330  101.8130 C.3    69  ALA69       0.1728
    122  C         10.3840   41.2160  102.8230 C.2    69  ALA69       0.2616
    123  O         10.8200   40.1200  102.4700 O.2    69  ALA69      -0.2715
    124  CB         8.7240   42.5350  101.5130 C.3    69  ALA69       0.0334
    125  N         10.0640   41.4940  104.0800 N.am   70  ARG70      -0.1963
    126  CA        10.1960   40.4800  105.1150 C.3    70  ARG70       0.1729
    127  C          8.8540   40.1290  105.7310 C.2    70  ARG70       0.2616
    128  O          7.9700   40.9760  105.8550 O.2    70  ARG70      -0.2715
    129  CB        11.1570   40.9470  106.2120 C.3    70  ARG70       0.0348
    130  CG        12.6250   40.9100  105.8140 C.3    70  ARG70       0.0492
    131  CD        13.5120   41.4190  106.9420 C.3    70  ARG70       0.2205
    132  NE        14.9150   41.4990  106.5450 N.pl3  70  ARG70      -0.0865
    133  CZ        15.7070   40.4470  106.3600 C.cat  70  ARG70       0.5346
    134  NH1       15.2410   39.2180  106.5400 N.pl3  70  ARG70       0.1354
    135  NH2       16.9650   40.6260  105.9860 N.pl3  70  ARG70       0.1354
    136  N          8.7080   38.8630  106.1050 N.am   71  PHE71      -0.1960
    137  CA         7.4920   38.3690  106.7340 C.3    71  PHE71       0.1771
    138  C          7.9470   37.5790  107.9530 C.2    71  PHE71       0.2619
    139  O          8.5800   36.5320  107.8200 O.2    71  PHE71      -0.2715
    140  CB         6.7140   37.4690  105.7700 C.3    71  PHE71       0.0574
    141  CG         6.2980   38.1580  104.5000 C.ar   71  PHE71      -0.0200
    142  CD1        7.2250   38.4170  103.4960 C.ar   71  PHE71      -0.0042
    143  CD2        4.9830   38.5760  104.3200 C.ar   71  PHE71      -0.0042
    144  CE1        6.8500   39.0850  102.3310 C.ar   71  PHE71      -0.0003
    145  CE2        4.5980   39.2460  103.1570 C.ar   71  PHE71      -0.0003
    146  CZ         5.5360   39.5000  102.1630 C.ar   71  PHE71      -0.0000
    147  N          7.6320   38.0910  109.1380 N.am   72  LYS72      -0.1963
    148  CA         8.0490   37.4470  110.3760 C.3    72  LYS72       0.1728
    149  C          9.5650   37.3160  110.3570 C.2    72  LYS72       0.2616
    150  O         10.1250   36.3180  110.8160 O.2    72  LYS72      -0.2715
    151  CB         7.4000   36.0670  110.5220 C.3    72  LYS72       0.0311
    152  CG         5.9300   36.1120  110.9020 C.3    72  LYS72       0.0038
    153  CD         5.3780   34.7140  111.1380 C.3    72  LYS72       0.0206
    154  CE         3.9480   34.7650  111.6590 C.3    72  LYS72       0.1093
    155  NZ         3.0410   35.4890  110.7260 N.3    72  LYS72      -0.1314
    156  N         10.2200   38.3330  109.8040 N.am   73  GLY73      -0.1955
    157  CA        11.6690   38.3490  109.7330 C.3    73  GLY73       0.1869
    158  C         12.2800   37.6570  108.5300 C.2    73  GLY73       0.2309
    159  O         13.4650   37.8350  108.2550 O.2    73  GLY73      -0.2863
    160  N         13.0040   37.1180  104.6640 N.3    75  SER75      -0.1217
    161  CA        13.0470   37.9010  103.4360 C.3    75  SER75       0.1889
    162  C         12.6150   37.0820  102.2280 C.2    75  SER75       0.2288
    163  O         12.9870   35.9180  102.0860 O.2    75  SER75      -0.2866
    164  CB        14.4600   38.4440  103.2070 C.3    75  SER75       0.2089
    165  OG        14.5250   39.2090  102.0150 O.3    75  SER75      -0.2183
    166  N         -2.0390   54.3060  104.1130 N.3    91  ARG91      -0.1231
    167  CA        -2.4160   53.5440  105.2940 C.3    91  ARG91       0.1694
    168  C         -3.1050   54.4790  106.2810 C.2    91  ARG91       0.2591
    169  O         -4.0250   54.0770  106.9950 O.2    91  ARG91      -0.2718
    170  CB        -1.1700   52.9440  105.9480 C.3    91  ARG91       0.0321
    171  CG        -1.4330   52.2500  107.2740 C.3    91  ARG91       0.0489
    172  CD        -0.5550   52.8200  108.3710 C.3    91  ARG91       0.2205
    173  NE         0.8670   52.6800  108.0730 N.pl3  91  ARG91      -0.0865
    174  CZ         1.8390   53.1850  108.8270 C.cat  91  ARG91       0.5346
    175  NH1        1.5410   53.8660  109.9280 N.pl3  91  ARG91       0.1354
    176  NH2        3.1100   53.0120  108.4820 N.pl3  91  ARG91       0.1354
    177  N         -2.6680   55.7340  106.2950 N.am   92  GLU92      -0.1979
    178  CA        -3.1970   56.7280  107.2210 C.3    92  GLU92       0.1602
    179  C         -4.5930   57.3020  106.9810 C.2    92  GLU92       0.2287
    180  O         -5.3520   57.4780  107.9340 O.2    92  GLU92      -0.2864
    181  CB        -2.2140   57.8990  107.3460 C.3    92  GLU92       0.0415
    182  CG        -0.8510   57.5540  107.9410 C.3    92  GLU92       0.1163
    183  CD         0.0610   56.8130  106.9810 C.2    92  GLU92       0.3649
    184  OE1       -0.2560   56.7500  105.7750 O.co2  92  GLU92      -0.2457
    185  OE2        1.1060   56.3020  107.4360 O.co2  92  GLU92      -0.2457
@<TRIPOS>BOND
     1    96    95    2
     2   101   102    1
     3    95    94    1
     4    97    94    1
     5    97    98    1
     6   102   105    1
     7   102   103    1
     8   108   110   ar
     9   108   106   ar
    10    94    93    1
    11   105   106    1
    12   110   111   ar
    13    99    98    2
    14    98   100   am
    15   104   103    2
    16   103   112   am
    17   106   107   ar
    18    93    91   am
    19   118   117    2
    20   119   117   am
    21    92    91    2
    22   112   113    1
    23   111   109   ar
    24   117   116    1
    25    91    90    1
    26    55    54    1
    27   107   109   ar
    28    40    38    1
    29    37    36    2
    30   113   116    1
    31   113   114    1
    32     4     3    2
    33    34    35    1
    34     3     2    1
    35    54    53    1
    36    54    56    1
    37    90    89    1
    38    38    35    1
    39    38    39    1
    40    53    50    1
    41    36    35    1
    42    36    42   am
    43    87    86    1
    44   114   115    2
    45   114   120   am
    46    89    84   am
    47    86    88    1
    48    86    83    1
    49    52    51    2
    50    49    50    1
    51    49    44   am
    52     1     2    1
    53     2     5    1
    54   120   121    1
    55    28    27    2
    56    41    39    1
    57    50    51    1
    58    42    43    1
    59    84    83    1
    60    84    85    2
    61    43    44    1
    62    43    46    1
    63    51    57   am
    64    83    82    1
    65    27    26    1
    66    44    45    2
    67    65    66    1
    68    59    60    2
    69    59    58    1
    70   124   121    1
    71    48    46    1
    72    67    68    2
    73    67    66    1
    74     5     6    1
    75    25    26    1
    76    66    69    1
    77   121   122    1
    78    46    47    1
    79   165   164    1
    80    57    58    1
    81   163   162    2
    82   146   144   ar
    83   146   145   ar
    84    26    29    1
    85   162   161    1
    86   144   142   ar
    87    82    79   am
    88    58    61    1
    89   123   122    2
    90   122   125   am
    91    15    16    2
    92    15    14    1
    93     6     7   ar
    94     6     8   ar
    95   145   143   ar
    96    69    70    1
    97    80    79    2
    98   164   161    1
    99    79    78    1
   100   161   160    1
   101     7     9   ar
   102    13    14    1
   103    29    30    1
   104   142   141   ar
   105    63    62    2
   106    71    72    1
   107    17    14    1
   108    17    18    1
   109    61    62    1
   110     8    10   ar
   111   125   126    1
   112   166   167    1
   113   143   141   ar
   114    62    64   am
   115    77    78    1
   116    77    73   am
   117    78    81    1
   118   141   140    1
   119    30    31    1
   120     9    11   ar
   121    19    18   ar
   122    19    21   ar
   123    18    20   ar
   124    72    73    1
   125    72    75    1
   126    73    74    2
   127   126   127    1
   128   126   129    1
   129   167   170    1
   130   167   168    1
   131    10    11   ar
   132    11    12    1
   133   127   128    2
   134   127   136   am
   135   140   137    1
   136   184   183   ar
   137   130   129    1
   138   130   131    1
   139    21    23   ar
   140    33    32    1
   141    31    32    1
   142   170   171    1
   143   135   133    1
   144    20    22   ar
   145    75    76    1
   146   136   137    1
   147   168   177   am
   148   168   169    2
   149   177   178    1
   150   133   134    1
   151   133   132    2
   152   132   131    1
   153   137   138    1
   154   183   185   ar
   155   183   182    1
   156   179   178    1
   157   179   180    2
   158    23    22   ar
   159    23    24    1
   160   178   181    1
   161   171   172    1
   162   181   182    1
   163   139   138    2
   164   138   147   am
   165   173   172    1
   166   173   174    2
   167   159   158    2
   168   176   174    1
   169   158   157    1
   170   174   175    1
   171   147   148    1
   172   157   156    1
   173   156   149   am
   174   149   148    1
   175   149   150    2
   176   148   151    1
   177   151   152    1
   178   155   154    1
   179   152   153    1
   180   153   154    1
