@<TRIPOS>MOLECULE
tmp/1oukA00.pdb
 186 173 0 0 0
SMALL
GASTEIGER

@<TRIPOS>ATOM
      1  N         47.2940   35.3030   23.0660 N.3    27  VAL27      -0.1245
      2  CA        48.3320   35.3030   24.0880 C.3    27  VAL27       0.1561
      3  C         48.3900   33.9470   24.7780 C.2    27  VAL27       0.2260
      4  O         48.7380   33.8710   25.9630 O.2    27  VAL27      -0.2867
      5  CB        48.0870   36.3670   25.1940 C.3    27  VAL27       0.0252
      6  CG1       48.3830   37.7450   24.6810 C.3    27  VAL27       0.0019
      7  CG2       46.6660   36.2710   25.6900 C.3    27  VAL27       0.0019
      8  N         42.6570   23.0990   26.9830 N.3    32  TYR32      -0.1241
      9  CA        41.4720   23.8040   27.4890 C.3    32  TYR32       0.1605
     10  C         40.8690   24.7480   26.4480 C.2    32  TYR32       0.2264
     11  O         39.6430   24.8810   26.3450 O.2    32  TYR32      -0.2867
     12  CB        41.8560   24.6210   28.7180 C.3    32  TYR32       0.0534
     13  CG        42.8700   25.7000   28.4020 C.ar   32  TYR32      -0.0201
     14  CD1       42.4660   26.9840   28.0020 C.ar   32  TYR32      -0.0009
     15  CD2       44.2390   25.4360   28.4910 C.ar   32  TYR32      -0.0009
     16  CE1       43.4030   27.9740   27.7090 C.ar   32  TYR32       0.0417
     17  CE2       45.1790   26.4190   28.1950 C.ar   32  TYR32       0.0417
     18  CZ        44.7570   27.6810   27.8130 C.ar   32  TYR32       0.1957
     19  OH        45.6980   28.6580   27.5730 O.3    32  TYR32      -0.2866
     20  N         43.4050   31.6330   24.6770 N.3    35  VAL35      -0.1245
     21  CA        43.1330   32.9170   25.3010 C.3    35  VAL35       0.1561
     22  C         43.5600   34.0500   24.3700 C.2    35  VAL35       0.2260
     23  O         44.5430   33.9180   23.6450 O.2    35  VAL35      -0.2867
     24  CB        43.9370   33.0840   26.6220 C.3    35  VAL35       0.0252
     25  CG1       43.7650   34.4840   27.1650 C.3    35  VAL35       0.0019
     26  CG2       43.4900   32.0670   27.6570 C.3    35  VAL35       0.0019
     27  N         41.3490   39.6260   29.1170 N.3    48  ALA48      -0.1245
     28  CA        41.7510   38.3240   28.5640 C.3    48  ALA48       0.1562
     29  C         40.4410   37.5890   28.2600 C.2    48  ALA48       0.2260
     30  O         39.4980   37.6160   29.0550 O.2    48  ALA48      -0.2867
     31  CB        42.5840   37.5150   29.5770 C.3    48  ALA48       0.0290
     32  N         38.9250   33.8230   27.0580 N.3    50  LYS50      -0.1245
     33  CA        39.1920   32.4020   26.8180 C.3    50  LYS50       0.1561
     34  C         38.0260   31.7360   26.1180 C.2    50  LYS50       0.2260
     35  O         36.8930   31.8150   26.5830 O.2    50  LYS50      -0.2867
     36  CB        39.4770   31.6760   28.1360 C.3    50  LYS50       0.0271
     37  CG        39.8670   30.2270   27.9680 C.3    50  LYS50       0.0035
     38  CD        40.6110   29.6850   29.2000 C.3    50  LYS50       0.0206
     39  CE        39.6820   29.0490   30.2530 C.3    50  LYS50       0.1093
     40  NZ        40.4570   28.2400   31.2460 N.3    50  LYS50      -0.1314
     41  N         33.4460   24.6910   35.7400 N.3    68  GLU68      -0.1245
     42  CA        34.2710   25.8830   35.6710 C.3    68  GLU68       0.1567
     43  C         33.4240   27.1240   35.6950 C.2    68  GLU68       0.2260
     44  O         33.6880   28.0510   36.4490 O.2    68  GLU68      -0.2867
     45  CB        35.1660   25.9030   34.4260 C.3    68  GLU68       0.0388
     46  CG        36.1450   27.0790   34.4620 C.3    68  GLU68       0.1160
     47  CD        37.0310   27.1810   33.2380 C.2    68  GLU68       0.3649
     48  OE1       36.6930   26.5540   32.2100 O.co2  68  GLU68      -0.2457
     49  OE2       38.0600   27.9040   33.2910 O.co2  68  GLU68      -0.2457
     50  N         33.7870   29.9280   38.4920 N.3    72  LEU72      -0.1245
     51  CA        34.0910   31.2640   38.0490 C.3    72  LEU72       0.1561
     52  C         32.9840   32.2670   38.4510 C.2    72  LEU72       0.2260
     53  O         33.2870   33.3820   38.8800 O.2    72  LEU72      -0.2867
     54  CB        34.3170   31.2490   36.5380 C.3    72  LEU72       0.0270
     55  CG        35.6360   30.6450   36.0300 C.3    72  LEU72       0.0019
     56  CD1       35.7060   30.7330   34.5120 C.3    72  LEU72       0.0001
     57  CD2       36.8020   31.3640   36.6420 C.3    72  LEU72       0.0001
     58  N         40.7360   34.8170   40.7030 N.3    81  ILE81      -0.1231
     59  CA        40.3200   35.2230   39.3810 C.3    81  ILE81       0.1692
     60  C         38.8400   35.6220   39.3830 C.2    81  ILE81       0.2593
     61  O         37.9970   34.9220   39.9330 O.2    81  ILE81      -0.2718
     62  CB        40.5510   34.0650   38.3610 C.3    81  ILE81       0.0266
     63  CG1       40.3930   34.5980   36.9530 C.3    81  ILE81       0.0019
     64  CG2       39.6050   32.8950   38.6330 C.3    81  ILE81       0.0020
     65  CD1       41.4040   35.6920   36.6440 C.3    81  ILE81       0.0001
     66  N         38.5380   36.7600   38.7780 N.am   82  GLY82      -0.1942
     67  CA        37.1640   37.2260   38.6960 C.3    82  GLY82       0.2014
     68  C         36.5810   37.0840   37.2890 C.2    82  GLY82       0.2638
     69  O         37.2990   37.1060   36.2760 O.2    82  GLY82      -0.2714
     70  N         35.2660   36.9120   37.2110 N.am   83  LEU83      -0.1977
     71  CA        34.6040   36.7680   35.9190 C.3    83  LEU83       0.1596
     72  C         33.9720   38.1060   35.5870 C.2    83  LEU83       0.2287
     73  O         33.0350   38.5400   36.2550 O.2    83  LEU83      -0.2864
     74  CB        33.5500   35.6610   35.9910 C.3    83  LEU83       0.0297
     75  CG        32.9100   35.2330   34.6790 C.3    83  LEU83       0.0022
     76  CD1       33.9700   34.7100   33.7510 C.3    83  LEU83       0.0001
     77  CD2       31.8820   34.1440   34.9300 C.3    83  LEU83       0.0001
     78  N         34.8640   33.3180   28.0370 N.3   101  LEU101     -0.1245
     79  CA        34.9860   33.8140   29.4040 C.3   101  LEU101      0.1561
     80  C         35.9530   34.9850   29.4270 C.2   101  LEU101      0.2260
     81  O         37.0650   34.8800   28.9250 O.2   101  LEU101     -0.2867
     82  CB        35.4800   32.6820   30.2890 C.3   101  LEU101      0.0270
     83  CG        34.5870   31.4390   30.2920 C.3   101  LEU101      0.0019
     84  CD1       35.4260   30.2000   30.5010 C.3   101  LEU101      0.0001
     85  CD2       33.5000   31.6070   31.3720 C.3   101  LEU101      0.0001
     86  N         38.0410   38.0770   31.6220 N.3   103  THR103     -0.1203
     87  CA        38.5810   38.4840   32.9230 C.3   103  THR103      0.1994
     88  C         39.5510   39.6340   32.7240 C.2   103  THR103      0.2618
     89  O         39.9530   39.9030   31.5950 O.2   103  THR103     -0.2717
     90  CB        39.3200   37.3160   33.6520 C.3   103  THR103      0.1784
     91  OG1       39.8400   37.7890   34.9000 O.3   103  THR103     -0.2211
     92  CG2       40.4710   36.7860   32.8270 C.3   103  THR103      0.0376
     93  N         39.9150   40.3360   33.7930 N.am  104  HIS104     -0.1961
     94  CA        40.8770   41.4260   33.6320 C.3   104  HIS104      0.1787
     95  C         42.1170   40.8890   32.9070 C.2   104  HIS104      0.2620
     96  O         42.2740   39.6860   32.7440 O.2   104  HIS104     -0.2715
     97  CB        41.3190   41.9870   34.9870 C.3   104  HIS104      0.0785
     98  CG        40.2360   42.6950   35.7440 C.ar  104  HIS104      0.0821
     99  ND1       39.2920   42.0310   36.4980 N.ar  104  HIS104     -0.2267
    100  CD2       39.9630   44.0140   35.8830 C.ar  104  HIS104      0.1154
    101  CE1       38.4860   42.9100   37.0700 C.ar  104  HIS104      0.1986
    102  NE2       38.8720   44.1210   36.7150 N.ar  104  HIS104     -0.2212
    103  N         42.9990   41.7610   32.4470 N.am  105  LEU105     -0.1963
    104  CA        44.2110   41.2630   31.7950 C.3   105  LEU105      0.1728
    105  C         45.3780   41.3800   32.7900 C.2   105  LEU105      0.2616
    106  O         45.5910   42.4400   33.3860 O.2   105  LEU105     -0.2715
    107  CB        44.5170   42.0490   30.5150 C.3   105  LEU105      0.0311
    108  CG        45.6530   41.4330   29.7020 C.3   105  LEU105      0.0022
    109  CD1       45.2860   40.0150   29.3700 C.3   105  LEU105      0.0001
    110  CD2       45.9110   42.2060   28.4180 C.3   105  LEU105      0.0001
    111  N         46.0940   40.2760   32.9950 N.am  106  MET106     -0.1963
    112  CA        47.2320   40.2440   33.9150 C.3   106  MET106      0.1736
    113  C         48.5090   40.1930   33.0890 C.2   106  MET106      0.2617
    114  O         48.5090   39.6680   31.9690 O.2   106  MET106     -0.2715
    115  CB        47.1890   38.9990   34.8200 C.3   106  MET106      0.0427
    116  CG        45.8950   38.7820   35.5980 C.3   106  MET106      0.0599
    117  SD        45.4570   40.2090   36.5830 S.3   106  MET106     -0.1393
    118  CE        46.0340   39.7010   38.2250 C.3   106  MET106      0.0692
    119  N         49.5990   40.7050   33.6590 N.am  107  GLY107     -0.1940
    120  CA        50.8750   40.7180   32.9610 C.3   107  GLY107      0.2014
    121  C         51.7510   39.4770   33.0230 C.2   107  GLY107      0.2639
    122  O         52.2810   39.0500   31.9960 O.2   107  GLY107     -0.2714
    123  N         51.9280   38.8920   34.2060 N.am  108  ALA108     -0.1963
    124  CA        52.7920   37.7050   34.3220 C.3   108  ALA108      0.1728
    125  C         52.4150   36.8340   35.5070 C.2   108  ALA108      0.2616
    126  O         51.5780   37.2310   36.3060 O.2   108  ALA108     -0.2715
    127  CB        54.2450   38.1410   34.4580 C.3   108  ALA108      0.0334
    128  N         53.0300   35.6520   35.6040 N.am  109  ASP109     -0.1971
    129  CA        52.7670   34.7510   36.7080 C.3   109  ASP109      0.1709
    130  C         53.9820   34.6750   37.6060 C.2   109  ASP109      0.2293
    131  O         54.9790   35.3270   37.3440 O.2   109  ASP109     -0.2864
    132  CB        52.3680   33.3520   36.2150 C.3   109  ASP109      0.1436
    133  CG        53.4020   32.7140   35.3420 C.2   109  ASP109      0.3671
    134  OD1       54.5950   32.7490   35.6990 O.co2 109  ASP109     -0.2456
    135  OD2       53.0280   32.1520   34.2990 O.co2 109  ASP109     -0.2456
    136  N         57.3110   34.2380   36.0880 N.3   112  ASN112     -0.1240
    137  CA        57.7290   35.4230   35.3570 C.3   112  ASN112      0.1653
    138  C         58.1300   36.5620   36.2880 C.2   112  ASN112      0.2266
    139  O         58.4720   37.6560   35.8400 O.2   112  ASN112     -0.2867
    140  CB        56.6040   35.8620   34.4280 C.3   112  ASN112      0.1155
    141  CG        56.1380   34.7410   33.5430 C.2   112  ASN112      0.2627
    142  OD1       55.0500   34.8050   32.9380 O.2   112  ASN112     -0.2716
    143  ND2       56.9630   33.6870   33.4530 N.am  112  ASN112     -0.0877
    144  N         52.5460   28.7340   38.0000 N.3   151  SER151     -0.1202
    145  CA        51.9650   29.0050   36.6790 C.3   151  SER151      0.2020
    146  C         50.4790   29.3790   36.7740 C.2   151  SER151      0.2618
    147  O         49.9370   29.9960   35.8610 O.2   151  SER151     -0.2717
    148  CB        52.1730   27.8220   35.7220 C.3   151  SER151      0.2103
    149  OG        51.2450   26.7860   35.9430 O.3   151  SER151     -0.2182
    150  N         49.7980   29.0190   37.8610 N.am  152  ASN152     -0.1974
    151  CA        48.4210   29.4770   37.9510 C.3   152  ASN152      0.1688
    152  C         48.2180   30.5560   39.0080 C.2   152  ASN152      0.2292
    153  O         47.1370   30.7000   39.5650 O.2   152  ASN152     -0.2864
    154  CB        47.4040   28.3380   38.1100 C.3   152  ASN152      0.1181
    155  CG        47.7920   27.3540   39.1370 C.2   152  ASN152      0.2629
    156  OD1       48.2130   27.7220   40.2160 O.2   152  ASN152     -0.2716
    157  ND2       47.6330   26.0790   38.8270 N.am  152  ASN152     -0.0877
    158  N         48.7360   34.6510   39.1540 N.3   154  ALA154     -0.1245
    159  CA        49.0420   35.8420   38.3660 C.3   154  ALA154      0.1562
    160  C         49.3660   37.0710   39.1800 C.2   154  ALA154      0.2260
    161  O         48.7360   37.3500   40.1900 O.2   154  ALA154     -0.2867
    162  CB        47.8900   36.1520   37.4100 C.3   154  ALA154      0.0290
    163  N         44.4070   31.4640   39.9310 N.3   164  LEU164     -0.1231
    164  CA        43.7090   31.0220   38.7350 C.3   164  LEU164      0.1693
    165  C         43.6270   29.5320   38.6850 C.2   164  LEU164      0.2592
    166  O         44.1890   28.8330   39.5150 O.2   164  LEU164     -0.2718
    167  CB        44.4310   31.4660   37.4740 C.3   164  LEU164      0.0284
    168  CG        44.5280   32.9440   37.1360 C.3   164  LEU164      0.0019
    169  CD1       45.3660   33.6600   38.1740 C.3   164  LEU164      0.0001
    170  CD2       45.1560   33.1030   35.7700 C.3   164  LEU164      0.0001
    171  N         42.9330   29.0800   37.6520 N.am  165  ASP165     -0.1974
    172  CA        42.7110   27.6920   37.3540 C.3   165  ASP165      0.1709
    173  C         41.7830   26.9400   38.2370 C.2   165  ASP165      0.2293
    174  O         42.1730   26.1780   39.1160 O.2   165  ASP165     -0.2864
    175  CB        44.0150   26.9340   37.2280 C.3   165  ASP165      0.1436
    176  CG        44.5790   27.0390   35.8460 C.2   165  ASP165      0.3671
    177  OD1       45.3090   26.1170   35.4290 O.co2 165  ASP165     -0.2456
    178  OD2       44.2770   28.0550   35.1790 O.co2 165  ASP165     -0.2456
    179  N         39.6500   23.0580   35.9290 N.3   168  LEU168     -0.1245
    180  CA        40.2860   22.6190   34.6700 C.3   168  LEU168      0.1561
    181  C         40.3950   21.0780   34.6380 C.2   168  LEU168      0.2260
    182  O         40.4720   20.4340   35.6960 O.2   168  LEU168     -0.2867
    183  CB        41.6780   23.2730   34.4710 C.3   168  LEU168      0.0270
    184  CG        41.7810   24.7720   34.0600 C.3   168  LEU168      0.0019
    185  CD1       43.1170   25.0080   33.3350 C.3   168  LEU168      0.0001
    186  CD2       40.6460   25.1820   33.1210 C.3   168  LEU168      0.0001
@<TRIPOS>BOND
     1     1     2    1
     2    23    22    2
     3     2     3    1
     4     2     5    1
     5    22    21    1
     6    20    21    1
     7     6     5    1
     8     3     4    2
     9     5     7    1
    10    21    24    1
    11    34    35    2
    12    34    33    1
    13    11    10    2
    14    10     9    1
    15    24    25    1
    16    24    26    1
    17    33    32    1
    18    33    36    1
    19     8     9    1
    20     9    12    1
    21    19    18    1
    22    16    18   ar
    23    16    14   ar
    24    18    17   ar
    25    37    36    1
    26    37    38    1
    27    14    13   ar
    28    78    79    1
    29    17    15   ar
    30    29    28    1
    31    29    30    2
    32    13    15   ar
    33    13    12    1
    34   110   108    1
    35    28    27    1
    36    28    31    1
    37    81    80    2
    38    38    39    1
    39   109   108    1
    40    79    80    1
    41    79    82    1
    42   108   107    1
    43    39    40    1
    44    82    83    1
    45    83    84    1
    46    83    85    1
    47   107   104    1
    48    89    88    2
    49    86    87    1
    50   104   103    1
    51   104   105    1
    52   114   113    2
    53   122   121    2
    54    48    47   ar
    55   103    95   am
    56    88    87    1
    57    88    93   am
    58    96    95    2
    59   105   111   am
    60   105   106    2
    61    92    90    1
    62    95    94    1
    63    87    90    1
    64   142   141    2
    65   120   121    1
    66   120   119    1
    67   111   112    1
    68   121   123   am
    69   113   119   am
    70   113   112    1
    71   186   184    1
    72    47    49   ar
    73    47    46    1
    74   185   184    1
    75   143   141   am
    76   141   140    1
    77    94    93    1
    78    94    97    1
    79    90    91    1
    80    76    75    1
    81   112   115    1
    82   184   183    1
    83   123   124    1
    84   135   133   ar
    85   124   127    1
    86   124   125    1
    87    45    46    1
    88    45    42    1
    89   140   137    1
    90   183   180    1
    91    56    55    1
    92   181   180    1
    93   181   182    2
    94   180   179    1
    95    75    77    1
    96    75    74    1
    97   115   116    1
    98    97    98    1
    99   178   176   ar
   100   133   134   ar
   101   133   132    1
   102   137   136    1
   103   137   138    1
   104   177   176   ar
   105   125   128   am
   106   125   126    2
   107    72    71    1
   108    72    73    2
   109   116   117    1
   110   128   129    1
   111    42    43    1
   112    42    41    1
   113    43    44    2
   114   148   149    1
   115   148   145    1
   116    98   100   ar
   117    98    99   ar
   118   170   168    1
   119   139   138    2
   120   176   175    1
   121   147   146    2
   122   100   102   ar
   123    71    74    1
   124    71    70    1
   125    55    54    1
   126    55    57    1
   127   132   129    1
   128    69    68    2
   129    99   101   ar
   130    54    51    1
   131   117   118    1
   132    65    63    1
   133   145   146    1
   134   145   144    1
   135   129   130    1
   136   102   101   ar
   137   146   150   am
   138    63    62    1
   139   168   167    1
   140   168   169    1
   141    70    68   am
   142   175   172    1
   143    68    67    1
   144   131   130    2
   145   172   171    1
   146   172   173    1
   147   162   159    1
   148   167   164    1
   149   171   165   am
   150   150   151    1
   151   151   154    1
   152   151   152    1
   153    51    52    1
   154    51    50    1
   155   154   155    1
   156   173   174    2
   157    62    64    1
   158    62    59    1
   159   159   158    1
   160   159   160    1
   161    52    53    2
   162   165   164    1
   163   165   166    2
   164    67    66    1
   165   164   163    1
   166    66    60   am
   167   157   155   am
   168   152   153    2
   169   155   156    2
   170   160   161    2
   171    59    60    1
   172    59    58    1
   173    60    61    2
