@<TRIPOS>MOLECULE
tmp/1oumC00.pdb
 124 116 0 0 0
SMALL
GASTEIGER

@<TRIPOS>ATOM
      1  N         48.4080   45.3410   35.5740 N.3    20  GLY20      -0.1225
      2  CA        49.5460   46.1260   36.0140 C.3    20  GLY20       0.1811
      3  C         49.1320   47.0670   37.1340 C.2    20  GLY20       0.2280
      4  O         49.9010   47.3370   38.0640 O.2    20  GLY20      -0.2866
      5  N         52.6330   45.8520   38.6680 N.3    63  GLY63      -0.1210
      6  CA        53.3520   47.0870   38.4020 C.3    63  GLY63       0.1956
      7  C         53.6330   47.2960   36.9230 C.2    63  GLY63       0.2611
      8  O         53.3140   46.4480   36.0930 O.2    63  GLY63      -0.2717
      9  N         54.2480   48.4220   36.5920 N.am   64  VAL64      -0.1979
     10  CA        54.5690   48.7380   35.2050 C.3    64  VAL64       0.1595
     11  C         55.9870   48.3220   34.8220 C.2    64  VAL64       0.2287
     12  O         56.9350   48.5730   35.5620 O.2    64  VAL64      -0.2864
     13  CB        54.4310   50.2550   34.9480 C.3    64  VAL64       0.0276
     14  CG1       54.9780   50.6070   33.5650 C.3    64  VAL64       0.0022
     15  CG2       52.9670   50.6730   35.0920 C.3    64  VAL64       0.0022
     16  N         48.1550   37.4580   32.8210 N.3    87  ARG87      -0.1245
     17  CA        48.2110   38.9040   32.8540 C.3    87  ARG87       0.1563
     18  C         46.9840   39.4660   32.1360 C.2    87  ARG87       0.2260
     19  O         46.6470   39.0420   31.0340 O.2    87  ARG87      -0.2867
     20  CB        49.4890   39.4150   32.1770 C.3    87  ARG87       0.0307
     21  CG        49.4920   40.9230   31.9350 C.3    87  ARG87       0.0489
     22  CD        50.8380   41.4330   31.3940 C.3    87  ARG87       0.2205
     23  NE        50.6500   42.5470   30.4670 N.pl3  87  ARG87      -0.0865
     24  CZ        50.1070   43.7160   30.7960 C.cat  87  ARG87       0.5346
     25  NH1       49.9670   44.6670   29.8810 N.pl3  87  ARG87       0.1354
     26  NH2       49.7230   43.9460   32.0430 N.pl3  87  ARG87       0.1354
     27  N         46.4500   46.2660   29.5260 N.3    90  SER90      -0.1202
     28  CA        46.0650   47.1440   28.4330 C.3    90  SER90       0.2020
     29  C         47.1970   47.1480   27.4070 C.2    90  SER90       0.2619
     30  O         48.2970   46.6570   27.6830 O.2    90  SER90      -0.2717
     31  CB        45.8310   48.5590   28.9620 C.3    90  SER90       0.2103
     32  OG        46.9830   49.0450   29.6300 O.3    90  SER90      -0.2182
     33  N         46.9300   47.6810   26.2210 N.am   91  CYS91      -0.1955
     34  CA        47.9560   47.7460   25.1900 C.3    91  CYS91       0.1843
     35  C         47.6350   48.8150   24.1580 C.2    91  CYS91       0.2626
     36  O         46.4860   49.2450   24.0280 O.2    91  CYS91      -0.2714
     37  CB        48.1160   46.3880   24.4950 C.3    91  CYS91       0.0997
     38  SG        46.7010   45.8610   23.5050 S.3    91  CYS91      -0.0797
     39  N         48.6680   49.2570   23.4470 N.am   92  GLY92      -0.1954
     40  CA        48.4900   50.2540   22.4110 C.3    92  GLY92       0.1869
     41  C         48.4540   49.5460   21.0720 C.2    92  GLY92       0.2309
     42  O         49.2980   48.6960   20.7870 O.2    92  GLY92      -0.2863
     43  N         57.4800   46.7230   25.4350 N.3   156  ALA156     -0.1245
     44  CA        58.4140   47.8340   25.3820 C.3   156  ALA156      0.1562
     45  C         58.9280   48.2550   26.7480 C.2   156  ALA156      0.2260
     46  O         58.2120   48.1710   27.7460 O.2   156  ALA156     -0.2867
     47  CB        57.7500   49.0230   24.6950 C.3   156  ALA156      0.0290
     48  N         57.7170   53.5080   27.3060 N.3   159  PHE159     -0.1241
     49  CA        56.3780   53.9150   26.9020 C.3   159  PHE159      0.1605
     50  C         56.5700   55.1120   25.9800 C.2   159  PHE159      0.2264
     51  O         55.9620   55.1920   24.9120 O.2   159  PHE159     -0.2867
     52  CB        55.5630   54.3060   28.1360 C.3   159  PHE159      0.0534
     53  CG        54.1830   54.8040   27.8250 C.ar  159  PHE159     -0.0203
     54  CD1       53.9740   56.1260   27.4430 C.ar  159  PHE159     -0.0042
     55  CD2       53.0850   53.9440   27.9090 C.ar  159  PHE159     -0.0042
     56  CE1       52.6910   56.5910   27.1460 C.ar  159  PHE159     -0.0003
     57  CE2       51.7980   54.3980   27.6160 C.ar  159  PHE159     -0.0003
     58  CZ        51.6020   55.7290   27.2330 C.ar  159  PHE159     -0.0000
     59  N         57.5630   51.6670   15.3860 N.3   167  PHE167     -0.1241
     60  CA        56.1500   51.3010   15.3280 C.3   167  PHE167      0.1605
     61  C         55.7680   50.8110   13.9320 C.2   167  PHE167      0.2264
     62  O         54.8900   49.9610   13.7910 O.2   167  PHE167     -0.2867
     63  CB        55.2680   52.4850   15.7330 C.3   167  PHE167      0.0534
     64  CG        55.3390   52.8110   17.1940 C.ar  167  PHE167     -0.0203
     65  CD1       55.5190   54.1220   17.6230 C.ar  167  PHE167     -0.0042
     66  CD2       55.2480   51.7990   18.1480 C.ar  167  PHE167     -0.0042
     67  CE1       55.6100   54.4220   18.9860 C.ar  167  PHE167     -0.0003
     68  CE2       55.3370   52.0870   19.5120 C.ar  167  PHE167     -0.0003
     69  CZ        55.5190   53.3990   19.9330 C.ar  167  PHE167     -0.0000
     70  N         50.9220   46.8720   21.8070 N.3   178  VAL178     -0.1231
     71  CA        52.1650   47.2800   22.4280 C.3   178  VAL178      0.1692
     72  C         51.9310   47.4560   23.9220 C.2   178  VAL178      0.2592
     73  O         51.1420   48.3030   24.3390 O.2   178  VAL178     -0.2718
     74  CB        52.6850   48.6170   21.8550 C.3   178  VAL178      0.0266
     75  CG1       53.9780   49.0220   22.5740 C.3   178  VAL178      0.0020
     76  CG2       52.9170   48.4890   20.3530 C.3   178  VAL178      0.0020
     77  N         52.5750   46.6250   24.7290 N.am  179  GLU179     -0.1966
     78  CA        52.4490   46.7590   26.1720 C.3   179  GLU179      0.1733
     79  C         53.8500   46.7520   26.7860 C.2   179  GLU179      0.2616
     80  O         54.8160   47.0580   26.0890 O.2   179  GLU179     -0.2715
     81  CB        51.5130   45.6870   26.7630 C.3   179  GLU179      0.0429
     82  CG        51.7010   44.2570   26.2840 C.3   179  GLU179      0.1163
     83  CD        52.7530   43.5300   27.0810 C.2   179  GLU179      0.3649
     84  OE1       53.8910   43.4130   26.5840 O.co2 179  GLU179     -0.2457
     85  OE2       52.4450   43.0910   28.2130 O.co2 179  GLU179     -0.2457
     86  N         53.9860   46.4130   28.0630 N.am  180  MET180     -0.1963
     87  CA        55.3030   46.4780   28.7030 C.3   180  MET180      0.1736
     88  C         55.6680   45.3400   29.6450 C.2   180  MET180      0.2616
     89  O         56.5880   45.4930   30.4520 O.2   180  MET180     -0.2715
     90  CB        55.4070   47.8010   29.4810 C.3   180  MET180      0.0427
     91  CG        55.2430   49.0480   28.6210 C.3   180  MET180      0.0599
     92  SD        55.1350   50.6050   29.5540 S.3   180  MET180     -0.1393
     93  CE        56.8320   50.7660   30.1600 C.3   180  MET180      0.0692
     94  N         54.9810   44.2050   29.5500 N.am  181  GLU181     -0.1977
     95  CA        55.2590   43.1060   30.4710 C.3   181  GLU181      0.1602
     96  C         55.3490   41.6760   29.9240 C.2   181  GLU181      0.2287
     97  O         56.1820   40.8820   30.3810 O.2   181  GLU181     -0.2864
     98  CB        54.2150   43.1040   31.5970 C.3   181  GLU181      0.0415
     99  CG        54.2130   44.3190   32.5260 C.3   181  GLU181      0.1163
    100  CD        53.4230   45.5030   31.9830 C.2   181  GLU181      0.3649
    101  OE1       52.5970   45.3040   31.0710 O.co2 181  GLU181     -0.2457
    102  OE2       53.6240   46.6330   32.4770 O.co2 181  GLU181     -0.2457
    103  N         43.9640   49.7060   24.9100 N.3   203  SER203     -0.1202
    104  CA        43.7940   50.8740   25.7660 C.3   203  SER203      0.2020
    105  C         43.8060   52.1720   24.9720 C.2   203  SER203      0.2618
    106  O         43.3320   53.2100   25.4400 O.2   203  SER203     -0.2717
    107  CB        44.9240   50.8880   26.8030 C.3   203  SER203      0.2103
    108  OG        45.0040   52.1210   27.4840 O.3   203  SER203     -0.2182
    109  N         44.3780   52.1100   23.7780 N.am  204  ASP204     -0.1973
    110  CA        44.4550   53.2630   22.9010 C.3   204  ASP204      0.1709
    111  C         45.1210   52.8950   21.5830 C.2   204  ASP204      0.2293
    112  O         45.6150   51.7790   21.4140 O.2   204  ASP204     -0.2864
    113  CB        45.2100   54.4170   23.5730 C.3   204  ASP204      0.1436
    114  CG        46.5480   53.9970   24.1470 C.2   204  ASP204      0.3671
    115  OD1       46.5820   53.4630   25.2820 O.co2 204  ASP204     -0.2456
    116  OD2       47.5710   54.2050   23.4570 O.co2 204  ASP204     -0.2456
    117  N         48.0740   53.9470   18.9000 N.3   206  ILE206     -0.1245
    118  CA        49.3050   54.7070   18.7370 C.3   206  ILE206      0.1561
    119  C         49.3070   55.6360   17.5230 C.2   206  ILE206      0.2260
    120  O         49.9740   56.6770   17.5320 O.2   206  ILE206     -0.2867
    121  CB        50.5250   53.7510   18.6640 C.3   206  ILE206      0.0252
    122  CG1       50.6660   53.0060   19.9960 C.3   206  ILE206      0.0019
    123  CG2       51.8020   54.5350   18.3510 C.3   206  ILE206      0.0019
    124  CD1       51.6820   51.8920   19.9910 C.3   206  ILE206      0.0001
@<TRIPOS>BOND
     1    62    61    2
     2    61    60    1
     3    60    59    1
     4    60    63    1
     5    63    64    1
     6    64    65   ar
     7    64    66   ar
     8   119   120    2
     9   119   118    1
    10    65    67   ar
    11    66    68   ar
    12   123   121    1
    13   121   118    1
    14   121   122    1
    15   118   117    1
    16    67    69   ar
    17    68    69   ar
    18   124   122    1
    19    76    74    1
    20    42    41    2
    21    41    40    1
    22   112   111    2
    23   111   110    1
    24    70    71    1
    25    74    71    1
    26    74    75    1
    27    40    39    1
    28    71    72    1
    29   110   113    1
    30   110   109    1
    31    39    35   am
    32   116   114   ar
    33    38    37    1
    34   113   114    1
    35   109   105   am
    36    72    73    2
    37    72    77   am
    38    36    35    2
    39   114   115   ar
    40    35    34    1
    41    37    34    1
    42    47    44    1
    43    77    78    1
    44   103   104    1
    45    51    50    2
    46   105   106    2
    47   105   104    1
    48    34    33    1
    49    44    43    1
    50    44    45    1
    51   104   107    1
    52    50    49    1
    53    80    79    2
    54    78    81    1
    55    78    79    1
    56    33    29   am
    57    82    81    1
    58    82    83    1
    59    84    83   ar
    60    45    46    2
    61    79    86   am
    62   107   108    1
    63    49    48    1
    64    49    52    1
    65    83    85   ar
    66    56    58   ar
    67    56    54   ar
    68    58    57   ar
    69    29    30    2
    70    29    28    1
    71    54    53   ar
    72    57    55   ar
    73    53    55   ar
    74    53    52    1
    75    86    87    1
    76    28    31    1
    77    28    27    1
    78    91    90    1
    79    91    92    1
    80    87    90    1
    81    87    88    1
    82    31    32    1
    83    94    88   am
    84    94    95    1
    85    92    93    1
    86    88    89    2
    87    25    24    1
    88    96    97    2
    89    96    95    1
    90    23    24    2
    91    23    22    1
    92    95    98    1
    93    24    26    1
    94    19    18    2
    95   101   100   ar
    96    22    21    1
    97    98    99    1
    98    21    20    1
    99   100   102   ar
   100   100    99    1
   101    18    17    1
   102    20    17    1
   103    16    17    1
   104    14    13    1
   105    11    10    1
   106    11    12    2
   107    13    15    1
   108    13    10    1
   109    10     9    1
   110     1     2    1
   111     2     3    1
   112     8     7    2
   113     9     7   am
   114     7     6    1
   115     3     4    2
   116     6     5    1
