@<TRIPOS>MOLECULE
tmp/1ourA00.pdb
 83 78 0 0 0
SMALL
GASTEIGER

@<TRIPOS>ATOM
      1  N         33.3880   18.0400   26.6830 N.3    21  ASN21      -0.1225
      2  CA        34.8210   17.7620   26.6210 C.3    21  ASN21       0.1785
      3  C         35.1790   17.5380   25.1600 C.2    21  ASN21       0.2598
      4  O         35.4590   16.4160   24.7500 O.2    21  ASN21      -0.2718
      5  CB        35.1550   16.5010   27.4210 C.3    21  ASN21       0.1169
      6  CG        34.9920   16.6960   28.9090 C.2    21  ASN21       0.2627
      7  OD1       35.8200   17.3390   29.5560 O.2    21  ASN21      -0.2716
      8  ND2       33.9140   16.1550   29.4600 N.am   21  ASN21      -0.0877
      9  N         35.1690   18.6110   24.3760 N.am   22  SER22      -0.1938
     10  CA        35.4620   18.5160   22.9520 C.3    22  SER22       0.2055
     11  C         35.6620   19.8860   22.3250 C.2    22  SER22       0.2644
     12  O         35.2050   20.8960   22.8600 O.2    22  SER22      -0.2714
     13  CB        34.3080   17.8030   22.2410 C.3    22  SER22       0.2130
     14  OG        34.4660   17.8460   20.8330 O.3    22  SER22      -0.2179
     15  N         36.3500   19.9170   21.1890 N.am   23  SER23      -0.1935
     16  CA        36.5750   21.1680   20.4820 C.3    23  SER23       0.2055
     17  C         35.2630   21.5840   19.8270 C.2    23  SER23       0.2643
     18  O         35.0120   22.7680   19.6070 O.2    23  SER23      -0.2714
     19  CB        37.6400   20.9880   19.3990 C.3    23  SER23       0.2130
     20  OG        37.2010   20.0780   18.4070 O.3    23  SER23      -0.2179
     21  N         34.4220   20.6010   19.5230 N.am   24  GLY24      -0.1954
     22  CA        33.1570   20.8940   18.8780 C.3    24  GLY24       0.1869
     23  C         32.0370   21.2960   19.8150 C.2    24  GLY24       0.2309
     24  O         31.9690   20.8480   20.9600 O.2    24  GLY24      -0.2863
     25  N         36.4220   22.0110   26.8330 N.3    45  THR45      -0.1218
     26  CA        37.3460   20.8870   26.7920 C.3    45  THR45       0.1862
     27  C         37.8020   20.6660   28.2270 C.2    45  THR45       0.2287
     28  O         38.7780   19.9610   28.4790 O.2    45  THR45      -0.2866
     29  CB        38.5790   21.1530   25.8880 C.3    45  THR45       0.1770
     30  OG1       39.1200   22.4470   26.1750 O.3    45  THR45      -0.2211
     31  CG2       38.2000   21.0580   24.4170 C.3    45  THR45       0.0375
     32  N         30.4900   10.1340   21.4970 N.3    95  GLU95      -0.1231
     33  CA        31.7150   10.3270   20.7400 C.3    95  GLU95       0.1699
     34  C         31.4030   11.0440   19.4350 C.2    95  GLU95       0.2592
     35  O         30.5910   10.5710   18.6360 O.2    95  GLU95      -0.2718
     36  CB        32.3760    8.9770   20.4500 C.3    95  GLU95       0.0402
     37  CG        33.6580    9.0760   19.6410 C.3    95  GLU95       0.1161
     38  CD        34.6680   10.0170   20.2660 C.2    95  GLU95       0.3649
     39  OE1       34.9820    9.8520   21.4610 O.co2  95  GLU95      -0.2457
     40  OE2       35.1580   10.9220   19.5590 O.co2  95  GLU95      -0.2457
     41  N         32.0480   12.1860   19.2260 N.am   96  ASP96      -0.1960
     42  CA        31.8300   12.9690   18.0140 C.3    96  ASP96       0.1840
     43  C         32.9500   12.7940   17.0020 C.2    96  ASP96       0.2623
     44  O         32.8430   13.2690   15.8690 O.2    96  ASP96      -0.2715
     45  CB        31.6940   14.4660   18.3390 C.3    96  ASP96       0.1450
     46  CG        32.9400   15.0500   18.9960 C.2    96  ASP96       0.3671
     47  OD1       34.0660   14.7020   18.5790 O.co2  96  ASP96      -0.2456
     48  OD2       32.7900   15.8860   19.9110 O.co2  96  ASP96      -0.2456
     49  N         34.0150   12.1050   17.4020 N.am   97  GLY97      -0.1940
     50  CA        35.1400   11.9350   16.5050 C.3    97  GLY97       0.2014
     51  C         35.7520   10.5570   16.3720 C.2    97  GLY97       0.2640
     52  O         35.0480    9.5570   16.2300 O.2    97  GLY97      -0.2714
     53  N         37.0810   10.5160   16.4320 N.am   98  THR98      -0.1936
     54  CA        37.8340    9.2820   16.2610 C.3    98  THR98       0.2028
     55  C         38.6850    8.8070   17.4410 C.2    98  THR98       0.2642
     56  O         39.1990    7.6880   17.4080 O.2    98  THR98      -0.2714
     57  CB        38.7780    9.4170   15.0580 C.3    98  THR98       0.1808
     58  OG1       39.6700   10.5160   15.2870 O.3    98  THR98      -0.2208
     59  CG2       37.9910    9.6760   13.7820 C.3    98  THR98       0.0379
     60  N         38.8490    9.6250   18.4760 N.am   99  ASP99      -0.1971
     61  CA        39.6950    9.2160   19.5980 C.3    99  ASP99       0.1709
     62  C         39.0070    8.2820   20.5890 C.2    99  ASP99       0.2293
     63  O         39.6540    7.6980   21.4570 O.2    99  ASP99      -0.2864
     64  CB        40.2610   10.4520   20.3110 C.3    99  ASP99       0.1436
     65  CG        39.2130   11.2260   21.0820 C.2    99  ASP99       0.3671
     66  OD1       38.0060   11.0620   20.8050 O.co2  99  ASP99      -0.2456
     67  OD2       39.6140   12.0210   21.9600 O.co2  99  ASP99      -0.2456
     68  N         37.0120    8.7040   23.2620 N.3   101  ASP101     -0.1239
     69  CA        37.0430    8.9010   24.7020 C.3   101  ASP101      0.1674
     70  C         35.6060    8.9540   25.2260 C.2   101  ASP101      0.2266
     71  O         35.3750    8.8810   26.4310 O.2   101  ASP101     -0.2867
     72  CB        37.8570   10.1500   25.1030 C.3   101  ASP101      0.1410
     73  CG        37.3520   11.4400   24.4760 C.2   101  ASP101      0.3668
     74  OD1       36.3870   11.4170   23.6850 O.co2 101  ASP101     -0.2456
     75  OD2       37.9500   12.4960   24.7890 O.co2 101  ASP101     -0.2456
     76  N         32.8390   13.5290   24.9100 N.3   104  ASP104     -0.1239
     77  CA        32.6120   14.7920   24.2170 C.3   104  ASP104      0.1674
     78  C         31.4050   15.5260   24.7750 C.2   104  ASP104      0.2266
     79  O         31.4170   16.7480   24.9290 O.2   104  ASP104     -0.2867
     80  CB        32.5230   14.5310   22.7170 C.3   104  ASP104      0.1410
     81  CG        33.7620   13.8110   22.2030 C.2   104  ASP104      0.3668
     82  OD1       34.8710   14.1780   22.6500 O.co2 104  ASP104     -0.2456
     83  OD2       33.6450   12.8910   21.3680 O.co2 104  ASP104     -0.2456
@<TRIPOS>BOND
     1    59    57    1
     2    57    58    1
     3    57    54    1
     4    44    43    2
     5    52    51    2
     6    54    53    1
     7    54    55    1
     8    51    53   am
     9    51    50    1
    10    50    49    1
    11    43    49   am
    12    43    42    1
    13    56    55    2
    14    55    60   am
    15    42    45    1
    16    42    41    1
    17    45    46    1
    18    20    19    1
    19    60    61    1
    20    47    46   ar
    21    35    34    2
    22    22    21    1
    23    22    23    1
    24    46    48   ar
    25    41    34   am
    26    19    16    1
    27    34    33    1
    28    21    17   am
    29    40    38   ar
    30    61    64    1
    31    61    62    1
    32    18    17    2
    33    37    38    1
    34    37    36    1
    35    23    24    2
    36    17    16    1
    37    38    39   ar
    38    64    65    1
    39    36    33    1
    40    16    15    1
    41    62    63    2
    42    33    32    1
    43    66    65   ar
    44    14    13    1
    45    65    67   ar
    46    15    11   am
    47    83    81   ar
    48    81    82   ar
    49    81    80    1
    50    13    10    1
    51    11    12    2
    52    11    10    1
    53    80    77    1
    54    10     9    1
    55    68    69    1
    56    74    73   ar
    57    77    78    1
    58    77    76    1
    59     9     3   am
    60    31    29    1
    61    73    75   ar
    62    73    72    1
    63    69    72    1
    64    69    70    1
    65     4     3    2
    66    78    79    2
    67     3     2    1
    68    70    71    2
    69    29    30    1
    70    29    26    1
    71     2     1    1
    72     2     5    1
    73    26    25    1
    74    26    27    1
    75     5     6    1
    76    27    28    2
    77     6     8   am
    78     6     7    2
