@<TRIPOS>MOLECULE
tmp/1ouuB00.pdb
 226 215 0 0 0
SMALL
GASTEIGER

@<TRIPOS>ATOM
      1  N         35.8660   40.4390   47.2800 N.3    28  LEU28      -0.1245
      2  CA        35.5220   41.8070   47.6700 C.3    28  LEU28       0.1561
      3  C         35.9420   42.8250   46.6190 C.2    28  LEU28       0.2260
      4  O         35.2030   43.7900   46.3870 O.2    28  LEU28      -0.2867
      5  CB        36.0610   42.2360   49.0190 C.3    28  LEU28       0.0270
      6  CG        35.3170   43.4400   49.6210 C.3    28  LEU28       0.0019
      7  CD1       33.8230   43.1740   49.7760 C.3    28  LEU28       0.0001
      8  CD2       35.9090   43.7750   50.9920 C.3    28  LEU28       0.0001
      9  N         33.4150   42.8090   43.6960 N.3    31  VAL31      -0.1245
     10  CA        32.1710   43.4270   44.1190 C.3    31  VAL31       0.1561
     11  C         32.1800   44.9530   44.0680 C.2    31  VAL31       0.2260
     12  O         31.2800   45.5620   43.4490 O.2    31  VAL31      -0.2867
     13  CB        31.7980   42.9800   45.5540 C.3    31  VAL31       0.0252
     14  CG1       30.5950   43.7670   46.0450 C.3    31  VAL31       0.0019
     15  CG2       31.5100   41.4760   45.5720 C.3    31  VAL31       0.0019
     16  N         28.5950   49.9390   46.3430 N.3    38  THR38      -0.1218
     17  CA        28.9460   49.2560   47.5850 C.3    38  THR38       0.1862
     18  C         30.1850   49.8720   48.1910 C.2    38  THR38       0.2287
     19  O         30.3900   49.7320   49.3920 O.2    38  THR38      -0.2866
     20  CB        29.2460   47.7920   47.2380 C.3    38  THR38       0.1770
     21  OG1       30.3820   47.8520   46.3730 O.3    38  THR38      -0.2211
     22  CG2       28.0140   47.2160   46.5430 C.3    38  THR38       0.0375
     23  N         29.9940   51.9580   51.5290 N.3    41  TYR41      -0.1227
     24  CA        29.8480   51.3970   52.8780 C.3    41  TYR41       0.1736
     25  C         31.1800   51.3330   53.6140 C.2    41  TYR41       0.2595
     26  O         31.2820   51.3840   54.8340 O.2    41  TYR41      -0.2718
     27  CB        29.1940   49.9910   52.7610 C.3    41  TYR41       0.0548
     28  CG        27.7860   50.1350   52.2020 C.ar   41  TYR41      -0.0200
     29  CD1       26.8420   50.7750   53.0060 C.ar   41  TYR41      -0.0009
     30  CD2       27.4040   49.7310   50.9400 C.ar   41  TYR41      -0.0009
     31  CE1       25.5470   50.9720   52.5660 C.ar   41  TYR41       0.0417
     32  CE2       26.1080   49.9420   50.4780 C.ar   41  TYR41       0.0417
     33  CZ        25.1830   50.5660   51.2980 C.ar   41  TYR41       0.1957
     34  OH        23.8820   50.8210   50.9090 O.3    41  TYR41      -0.2866
     35  N         32.2590   51.2320   52.8450 N.am   42  PHE42      -0.1962
     36  CA        33.6350   51.1510   53.2380 C.3    42  PHE42       0.1771
     37  C         34.3920   52.4650   53.1030 C.2    42  PHE42       0.2620
     38  O         35.1630   52.6470   52.1260 O.2    42  PHE42      -0.2715
     39  CB        34.3120   50.1160   52.2750 C.3    42  PHE42       0.0574
     40  CG        33.6700   48.7600   52.3340 C.ar   42  PHE42      -0.0200
     41  CD1       33.8860   47.9310   53.4190 C.ar   42  PHE42      -0.0042
     42  CD2       32.8390   48.3290   51.3150 C.ar   42  PHE42      -0.0042
     43  CE1       33.3330   46.6810   53.4860 C.ar   42  PHE42      -0.0003
     44  CE2       32.2540   47.0740   51.3750 C.ar   42  PHE42      -0.0003
     45  CZ        32.5030   46.2560   52.4620 C.ar   42  PHE42      -0.0000
     46  N         34.2410   53.3890   54.0510 N.am   43  GLY43      -0.1940
     47  CA        34.8970   54.6860   53.9870 C.3    43  GLY43       0.2014
     48  C         36.3930   54.8330   54.1390 C.2    43  GLY43       0.2640
     49  O         37.1090   55.5780   53.4130 O.2    43  GLY43      -0.2714
     50  N         36.9630   54.1100   55.0970 N.am   44  SER44      -0.1935
     51  CA        38.3710   54.1090   55.4110 C.3    44  SER44       0.2055
     52  C         39.2940   53.2310   54.5850 C.2    44  SER44       0.2643
     53  O         40.4460   52.9790   55.0520 O.2    44  SER44      -0.2714
     54  CB        38.4590   53.5610   56.8980 C.3    44  SER44       0.2130
     55  OG        37.8170   52.2680   56.8880 O.3    44  SER44      -0.2179
     56  N         38.9170   52.7630   53.4090 N.am   45  PHE45      -0.1973
     57  CA        39.7240   51.8400   52.6420 C.3    45  PHE45       0.1639
     58  C         40.8410   52.2950   51.7580 C.2    45  PHE45       0.2290
     59  O         41.6860   51.4520   51.3370 O.2    45  PHE45      -0.2864
     60  CB        38.6850   50.9880   51.8220 C.3    45  PHE45       0.0560
     61  CG        38.2220   49.8050   52.6280 C.ar   45  PHE45      -0.0200
     62  CD1       38.3130   49.7700   54.0150 C.ar   45  PHE45      -0.0042
     63  CD2       37.6280   48.7350   51.9710 C.ar   45  PHE45      -0.0042
     64  CE1       37.8680   48.6930   54.7550 C.ar   45  PHE45      -0.0003
     65  CE2       37.1810   47.6310   52.6910 C.ar   45  PHE45      -0.0003
     66  CZ        37.3100   47.6040   54.0850 C.ar   45  PHE45      -0.0000
     67  N         39.9670   42.9910   54.5440 N.3    63  HIS63      -0.1241
     68  CA        38.5190   42.7600   54.7790 C.3    63  HIS63       0.1621
     69  C         37.9920   41.5420   54.0510 C.2    63  HIS63       0.2264
     70  O         37.1750   40.7330   54.5500 O.2    63  HIS63      -0.2867
     71  CB        37.8000   44.0840   54.4260 C.3    63  HIS63       0.0745
     72  CG        36.4010   44.0310   54.9640 C.ar   63  HIS63       0.0817
     73  ND1       36.1360   44.1210   56.3020 N.ar   63  HIS63      -0.2268
     74  CD2       35.2120   43.7850   54.3550 C.ar   63  HIS63       0.1154
     75  CE1       34.8380   43.9710   56.5130 C.ar   63  HIS63       0.1986
     76  NE2       34.2630   43.7610   55.3480 N.ar   63  HIS63      -0.2212
     77  N         38.7230   38.8090   56.2490 N.3    66  VAL66      -0.1231
     78  CA        37.7620   38.8590   57.3840 C.3    66  VAL66       0.1692
     79  C         36.4330   38.2020   56.9370 C.2    66  VAL66       0.2591
     80  O         35.8930   37.2780   57.5910 O.2    66  VAL66      -0.2718
     81  CB        37.4940   40.3060   57.8360 C.3    66  VAL66       0.0266
     82  CG1       36.4230   40.4360   58.9050 C.3    66  VAL66       0.0020
     83  CG2       38.7820   40.9500   58.3440 C.3    66  VAL66       0.0020
     84  N         35.9040   38.6590   55.7840 N.am   67  VAL67      -0.1980
     85  CA        34.6840   38.0850   55.2360 C.3    67  VAL67       0.1595
     86  C         34.7400   36.5850   55.0430 C.2    67  VAL67       0.2287
     87  O         33.8240   35.8500   55.4660 O.2    67  VAL67      -0.2864
     88  CB        34.3580   38.8130   53.9120 C.3    67  VAL67       0.0276
     89  CG1       33.1980   38.1650   53.1770 C.3    67  VAL67       0.0022
     90  CG2       34.0660   40.2850   54.2110 C.3    67  VAL67       0.0022
     91  N         34.2890   34.6690   58.3860 N.3    70  ALA70      -0.1231
     92  CA        32.9130   34.4490   58.8560 C.3    70  ALA70       0.1694
     93  C         32.2570   33.2740   58.1330 C.2    70  ALA70       0.2591
     94  O         31.5610   32.4760   58.7920 O.2    70  ALA70      -0.2718
     95  CB        32.0790   35.7090   58.7430 C.3    70  ALA70       0.0304
     96  N         32.4560   33.0850   56.8360 N.am   71  LEU71      -0.1980
     97  CA        31.9420   31.9600   56.0480 C.3    71  LEU71       0.1596
     98  C         32.4900   30.5860   56.4940 C.2    71  LEU71       0.2287
     99  O         31.9460   29.4880   56.3660 O.2    71  LEU71      -0.2864
    100  CB        32.3440   32.1470   54.5810 C.3    71  LEU71       0.0297
    101  CG        31.4700   32.8510   53.5740 C.3    71  LEU71       0.0022
    102  CD1       30.5800   33.9420   54.1770 C.3    71  LEU71       0.0001
    103  CD2       32.3250   33.4420   52.4420 C.3    71  LEU71       0.0001
    104  N         33.1840   29.7200   59.6300 N.3    73  LYS73      -0.1245
    105  CA        32.4020   29.1950   60.7480 C.3    73  LYS73       0.1561
    106  C         31.0110   28.7230   60.3240 C.2    73  LYS73       0.2260
    107  O         30.3610   28.0000   61.0720 O.2    73  LYS73      -0.2867
    108  CB        32.2280   30.1770   61.8900 C.3    73  LYS73       0.0271
    109  CG        32.4730   31.6300   61.5650 C.3    73  LYS73       0.0035
    110  CD        31.4970   32.5160   62.3480 C.3    73  LYS73       0.0206
    111  CE        32.1780   33.7430   62.9300 C.3    73  LYS73       0.1093
    112  NZ        32.8640   34.6060   61.9180 N.3    73  LYS73      -0.1314
    113  N         25.0450   33.8050   63.2210 N.3    85  TYR85      -0.1241
    114  CA        25.0920   35.1270   62.5830 C.3    85  TYR85       0.1605
    115  C         24.1380   36.1980   63.0850 C.2    85  TYR85       0.2264
    116  O         23.7400   37.1030   62.3000 O.2    85  TYR85      -0.2867
    117  CB        24.9080   34.9400   61.0660 C.3    85  TYR85       0.0534
    118  CG        26.0080   34.3230   60.2600 C.ar   85  TYR85      -0.0201
    119  CD1       27.0510   33.5660   60.7820 C.ar   85  TYR85      -0.0009
    120  CD2       26.0290   34.5230   58.8720 C.ar   85  TYR85      -0.0009
    121  CE1       28.0400   32.9980   60.0100 C.ar   85  TYR85       0.0417
    122  CE2       27.0230   33.9790   58.0770 C.ar   85  TYR85       0.0417
    123  CZ        28.0230   33.2180   58.6530 C.ar   85  TYR85       0.1957
    124  OH        29.0000   32.6850   57.8440 O.3    85  TYR85      -0.2866
    125  N         26.0710   39.8660   63.5940 N.3    88  LEU88      -0.1245
    126  CA        26.6650   40.2210   62.2920 C.3    88  LEU88       0.1561
    127  C         25.4860   40.8890   61.5370 C.2    88  LEU88       0.2260
    128  O         25.6000   41.9280   60.9380 O.2    88  LEU88      -0.2867
    129  CB        27.1370   39.0300   61.5250 C.3    88  LEU88       0.0270
    130  CG        28.5530   38.5820   61.3540 C.3    88  LEU88       0.0019
    131  CD1       28.7090   37.8680   59.9950 C.3    88  LEU88       0.0001
    132  CD2       29.5550   39.7390   61.4180 C.3    88  LEU88       0.0001
    133  N         24.8530   44.2510   63.1960 N.3    91  THR91      -0.1203
    134  CA        25.7640   45.4120   62.9090 C.3    91  THR91       0.1994
    135  C         25.4480   45.9190   61.5170 C.2    91  THR91       0.2617
    136  O         25.1860   47.1020   61.2930 O.2    91  THR91      -0.2717
    137  CB        27.2260   45.0710   63.1720 C.3    91  THR91       0.1784
    138  OG1       27.5910   43.9080   62.4480 O.3    91  THR91      -0.2211
    139  CG2       27.3900   44.7320   64.6760 C.3    91  THR91       0.0376
    140  N         25.3300   45.0150   60.5650 N.am   92  HIS92      -0.1975
    141  CA        25.0110   45.3490   59.1850 C.3    92  HIS92       0.1656
    142  C         23.6570   46.0260   59.0370 C.2    92  HIS92       0.2291
    143  O         23.4760   46.8870   58.1490 O.2    92  HIS92      -0.2864
    144  CB        25.1330   44.0550   58.3640 C.3    92  HIS92       0.0771
    145  CG        26.5690   43.6420   58.1300 C.ar   92  HIS92       0.0820
    146  ND1       27.2280   42.7430   58.9350 N.ar   92  HIS92      -0.2267
    147  CD2       27.4490   43.9910   57.1570 C.ar   92  HIS92       0.1154
    148  CE1       28.4460   42.5690   58.4870 C.ar   92  HIS92       0.1986
    149  NE2       28.6120   43.2920   57.3850 N.ar   92  HIS92      -0.2212
    150  N         25.6290   49.7430   60.2430 N.3    96  LEU96      -0.1245
    151  CA        26.0520   50.1150   58.9320 C.3    96  LEU96       0.1561
    152  C         24.9150   50.3500   57.9650 C.2    96  LEU96       0.2260
    153  O         25.1520   50.8800   56.8530 O.2    96  LEU96      -0.2867
    154  CB        26.9570   48.9980   58.3350 C.3    96  LEU96       0.0270
    155  CG        28.0120   48.4430   59.3140 C.3    96  LEU96       0.0019
    156  CD1       28.5450   47.0980   58.8370 C.3    96  LEU96       0.0001
    157  CD2       29.1030   49.4750   59.5070 C.3    96  LEU96       0.0001
    158  N         23.3040   48.5150   55.8400 N.3    98  VAL98      -0.1245
    159  CA        23.6120   47.9600   54.5120 C.3    98  VAL98       0.1561
    160  C         22.3680   47.4810   53.8030 C.2    98  VAL98       0.2260
    161  O         21.6310   46.6540   54.3910 O.2    98  VAL98      -0.2867
    162  CB        24.6420   46.8170   54.7230 C.3    98  VAL98       0.0252
    163  CG1       24.7140   45.8430   53.5660 C.3    98  VAL98       0.0019
    164  CG2       26.0030   47.4510   55.0210 C.3    98  VAL98       0.0019
    165  N         22.5180   43.6380   48.7410 N.3   102  ASN102     -0.1225
    166  CA        23.9280   43.5330   48.5390 C.3   102  ASN102      0.1785
    167  C         24.4710   42.2260   49.1160 C.2   102  ASN102      0.2597
    168  O         25.6150   41.9530   48.7340 O.2   102  ASN102     -0.2718
    169  CB        24.7150   44.6890   49.1560 C.3   102  ASN102      0.1169
    170  CG        24.4020   46.0780   48.6730 C.2   102  ASN102      0.2627
    171  OD1       24.5660   46.4850   47.5150 O.2   102  ASN102     -0.2716
    172  ND2       23.9670   46.9320   49.6120 N.am  102  ASN102     -0.0877
    173  N         23.7520   41.4990   49.9670 N.am  103  PHE103     -0.1976
    174  CA        24.2950   40.2330   50.4710 C.3   103  PHE103      0.1639
    175  C         24.2880   39.2430   49.3000 C.2   103  PHE103      0.2290
    176  O         25.2430   38.4920   49.1080 O.2   103  PHE103     -0.2864
    177  CB        23.5550   39.6070   51.6640 C.3   103  PHE103      0.0560
    178  CG        23.6090   40.5010   52.8800 C.ar  103  PHE103     -0.0200
    179  CD1       24.8160   41.0810   53.2770 C.ar  103  PHE103     -0.0042
    180  CD2       22.4590   40.8100   53.5870 C.ar  103  PHE103     -0.0042
    181  CE1       24.8850   41.9400   54.3550 C.ar  103  PHE103     -0.0003
    182  CE2       22.5130   41.6800   54.6650 C.ar  103  PHE103     -0.0003
    183  CZ        23.7200   42.2410   55.0470 C.ar  103  PHE103     -0.0000
    184  N         27.0140   39.8600   46.6670 N.3   106  LEU106     -0.1231
    185  CA        28.2610   39.3260   47.1600 C.3   106  LEU106      0.1693
    186  C         28.3100   37.8090   46.9430 C.2   106  LEU106      0.2591
    187  O         29.2770   37.3620   46.3770 O.2   106  LEU106     -0.2718
    188  CB        28.5530   39.5890   48.6500 C.3   106  LEU106      0.0284
    189  CG        29.9950   39.3230   49.1040 C.3   106  LEU106      0.0019
    190  CD1       30.5010   40.3110   50.1590 C.3   106  LEU106      0.0001
    191  CD2       30.1120   37.9030   49.6500 C.3   106  LEU106      0.0001
    192  N         27.2850   37.0900   47.3850 N.am  107  ALA107     -0.1980
    193  CA        27.2010   35.6440   47.1940 C.3   107  ALA107      0.1597
    194  C         27.3850   35.2200   45.7410 C.2   107  ALA107      0.2287
    195  O         28.1040   34.2440   45.4170 O.2   107  ALA107     -0.2864
    196  CB        25.8510   35.1200   47.6960 C.3   107  ALA107      0.0319
    197  N         24.7430   29.0070   49.7990 N.3   134  MET134     -0.1245
    198  CA        24.8160   30.4570   49.6640 C.3   134  MET134      0.1570
    199  C         23.5060   31.1420   50.0730 C.2   134  MET134      0.2261
    200  O         23.5540   32.2160   50.7010 O.2   134  MET134     -0.2867
    201  CB        25.1880   30.9310   48.2770 C.3   134  MET134      0.0387
    202  CG        26.5550   30.7750   47.7300 C.3   134  MET134      0.0595
    203  SD        27.9560   31.2680   48.7130 S.3   134  MET134     -0.1393
    204  CE        27.4940   32.8740   49.2980 C.3   134  MET134      0.0692
    205  N         23.1400   31.2630   53.9110 N.3   137  VAL137     -0.1231
    206  CA        24.0560   32.2780   54.3750 C.3   137  VAL137      0.1692
    207  C         23.4200   33.6590   54.2590 C.2   137  VAL137      0.2591
    208  O         23.3400   34.4680   55.1900 O.2   137  VAL137     -0.2718
    209  CB        25.3720   32.1900   53.5370 C.3   137  VAL137      0.0266
    210  CG1       26.2070   33.4440   53.6560 C.3   137  VAL137      0.0020
    211  CG2       26.1650   30.9730   54.0250 C.3   137  VAL137      0.0020
    212  N         22.9140   33.9390   53.0670 N.am  138  VAL138     -0.1980
    213  CA        22.2370   35.1860   52.7100 C.3   138  VAL138      0.1595
    214  C         21.0390   35.4470   53.6210 C.2   138  VAL138      0.2287
    215  O         20.7740   36.5710   54.0690 O.2   138  VAL138     -0.2864
    216  CB        21.8140   35.0870   51.2310 C.3   138  VAL138      0.0276
    217  CG1       20.8210   36.1600   50.8230 C.3   138  VAL138      0.0022
    218  CG2       23.0470   35.1190   50.3460 C.3   138  VAL138      0.0022
    219  N         22.1730   36.4850   57.0700 N.3   141  MET141     -0.1245
    220  CA        22.6220   37.8770   57.0530 C.3   141  MET141      0.1570
    221  C         21.4680   38.8800   57.1600 C.2   141  MET141      0.2261
    222  O         21.5570   39.9050   57.8930 O.2   141  MET141     -0.2867
    223  CB        23.4680   38.1270   55.8050 C.3   141  MET141      0.0387
    224  CG        24.9110   37.6590   55.8320 C.3   141  MET141      0.0595
    225  SD        25.8850   38.1240   57.2740 S.3   141  MET141     -0.1393
    226  CE        26.2090   39.8490   56.9940 C.3   141  MET141      0.0692
@<TRIPOS>BOND
     1    12    11    2
     2     9    10    1
     3    11    10    1
     4    10    13    1
     5   195   194    2
     6    13    15    1
     7    13    14    1
     8   194   193    1
     9    16    17    1
    10    21    20    1
    11   187   186    2
    12     4     3    2
    13    22    20    1
    14     3     2    1
    15   184   185    1
    16   186   185    1
    17   186   192   am
    18   185   188    1
    19   193   192    1
    20   193   196    1
    21    20    17    1
    22     1     2    1
    23   171   170    2
    24    17    18    1
    25     2     5    1
    26   202   201    1
    27   202   203    1
    28    18    19    2
    29   201   198    1
    30   166   165    1
    31   166   167    1
    32   166   169    1
    33   188   189    1
    34   170   169    1
    35   170   172   am
    36   203   204    1
    37   168   167    2
    38     5     6    1
    39   189   191    1
    40   189   190    1
    41   176   175    2
    42   167   173   am
    43   175   174    1
    44     6     7    1
    45     6     8    1
    46   198   197    1
    47   198   199    1
    48   173   174    1
    49   199   200    2
    50   218   216    1
    51   174   177    1
    52    32    30   ar
    53    32    33   ar
    54   217   216    1
    55    34    33    1
    56    30    28   ar
    57   216   213    1
    58    33    31   ar
    59    42    44   ar
    60    42    40   ar
    61    59    58    2
    62    44    45   ar
    63    23    24    1
    64   177   178    1
    65    58    57    1
    66    60    61    1
    67    60    57    1
    68    63    61   ar
    69    63    65   ar
    70    38    37    2
    71    28    27    1
    72    28    29   ar
    73    39    40    1
    74    39    36    1
    75    40    41   ar
    76   103   101    1
    77    45    43   ar
    78    31    29   ar
    79    61    62   ar
    80    57    56    1
    81    65    66   ar
    82   213   212    1
    83   213   214    1
    84    27    24    1
    85    35    36    1
    86    35    25   am
    87    24    25    1
    88   178   179   ar
    89   178   180   ar
    90   212   207   am
    91    37    36    1
    92    37    46   am
    93    89    88    1
    94   179   181   ar
    95    56    52   am
    96    49    48    2
    97    41    43   ar
    98   209   210    1
    99   209   211    1
   100   209   206    1
   101   163   162    1
   102   101   102    1
   103   101   100    1
   104   180   182   ar
   105    25    26    2
   106   214   215    2
   107   160   161    2
   108   160   159    1
   109   205   206    1
   110    88    90    1
   111    88    85    1
   112    47    46    1
   113    47    48    1
   114    62    64   ar
   115    69    70    2
   116    69    68    1
   117    66    64   ar
   118    48    50   am
   119   207   206    1
   120   207   208    2
   121    74    72   ar
   122    74    76   ar
   123   181   183   ar
   124    71    68    1
   125    71    72    1
   126   159   162    1
   127   159   158    1
   128    67    68    1
   129   100    97    1
   130    52    53    2
   131    52    51    1
   132   182   183   ar
   133   162   164    1
   134    72    73   ar
   135    86    85    1
   136    86    87    2
   137    50    51    1
   138    85    84    1
   139    76    75   ar
   140    51    54    1
   141    84    79   am
   142   223   224    1
   143   223   220    1
   144   224   225    1
   145    97    98    1
   146    97    96    1
   147    77    78    1
   148    73    75   ar
   149    99    98    2
   150    96    93   am
   151   153   152    2
   152    55    54    1
   153    79    78    1
   154    79    80    2
   155   226   225    1
   156   220   219    1
   157   220   221    1
   158   147   149   ar
   159   147   145   ar
   160   221   222    2
   161    78    81    1
   162   149   148   ar
   163    81    83    1
   164    81    82    1
   165   124   123    1
   166   152   151    1
   167   122   123   ar
   168   122   120   ar
   169   145   144    1
   170   145   146   ar
   171    93    94    2
   172    93    92    1
   173   143   142    2
   174   154   151    1
   175   154   155    1
   176   144   141    1
   177    91    92    1
   178   148   146   ar
   179   123   121   ar
   180    95    92    1
   181   156   155    1
   182   120   118   ar
   183   151   150    1
   184   142   141    1
   185   141   140    1
   186   155   157    1
   187   104   105    1
   188   131   130    1
   189   121   119   ar
   190   118   119   ar
   191   118   117    1
   192   106   105    1
   193   106   107    2
   194   140   135   am
   195   105   108    1
   196   128   127    2
   197   117   114    1
   198   136   135    2
   199   130   132    1
   200   130   129    1
   201   135   134    1
   202   129   126    1
   203   127   126    1
   204   109   108    1
   205   109   110    1
   206   112   111    1
   207   126   125    1
   208   116   115    2
   209   110   111    1
   210   138   137    1
   211   114   115    1
   212   114   113    1
   213   134   137    1
   214   134   133    1
   215   137   139    1
