@<TRIPOS>MOLECULE
tmp/1ouuA00.pdb
 229 219 0 0 0
SMALL
GASTEIGER

@<TRIPOS>ATOM
      1  N         21.2630   26.2690   35.0490 N.3    32  MET32      -0.1245
      2  CA        20.0840   26.9500   35.5300 C.3    32  MET32       0.1570
      3  C         18.9910   25.9860   36.0200 C.2    32  MET32       0.2261
      4  O         18.3980   26.2040   37.0720 O.2    32  MET32      -0.2867
      5  CB        19.4890   27.7920   34.3820 C.3    32  MET32       0.0387
      6  CG        18.2000   28.4920   34.8040 C.3    32  MET32       0.0595
      7  SD        17.4760   29.5740   33.5480 S.3    32  MET32      -0.1393
      8  CE        16.5380   28.3160   32.6190 C.3    32  MET32       0.0692
      9  N         12.7800   26.9230   37.4820 N.3    39  THR39      -0.1218
     10  CA        12.7960   27.2620   36.0660 C.3    39  THR39       0.1862
     11  C         12.2720   26.1080   35.2240 C.2    39  THR39       0.2287
     12  O         11.8230   26.1660   34.0940 O.2    39  THR39      -0.2866
     13  CB        14.2250   27.6410   35.5920 C.3    39  THR39       0.1770
     14  OG1       15.1870   26.5760   35.7500 O.3    39  THR39      -0.2211
     15  CG2       14.7260   28.8470   36.4030 C.3    39  THR39       0.0375
     16  N          8.7560   25.6510   33.0000 N.3    42  TYR42      -0.1227
     17  CA         8.6180   26.1320   31.6390 C.3    42  TYR42       0.1736
     18  C          9.0510   25.1520   30.5870 C.2    42  TYR42       0.2595
     19  O          8.7710   25.3450   29.3730 O.2    42  TYR42      -0.2718
     20  CB         9.5010   27.3940   31.5620 C.3    42  TYR42       0.0548
     21  CG         9.0020   28.4580   32.5230 C.ar   42  TYR42      -0.0200
     22  CD1        8.0000   29.3770   32.0950 C.ar   42  TYR42      -0.0009
     23  CD2        9.5390   28.5630   33.8000 C.ar   42  TYR42      -0.0009
     24  CE1        7.6040   30.3900   32.9590 C.ar   42  TYR42       0.0417
     25  CE2        9.1050   29.5670   34.6560 C.ar   42  TYR42       0.0417
     26  CZ         8.1270   30.4680   34.2290 C.ar   42  TYR42       0.1957
     27  OH         7.7280   31.4490   35.0960 O.3    42  TYR42      -0.2866
     28  N          9.8060   24.0990   30.9660 N.am   43  PHE43      -0.1976
     29  CA        10.3520   23.1580   29.9850 C.3    43  PHE43       0.1639
     30  C          9.8650   21.7430   30.1500 C.2    43  PHE43       0.2290
     31  O         10.5470   20.8120   29.7040 O.2    43  PHE43      -0.2864
     32  CB        11.9030   23.2090   30.0480 C.3    43  PHE43       0.0560
     33  CG        12.5090   24.5580   29.7580 C.ar   43  PHE43      -0.0200
     34  CD1       12.6380   25.0350   28.4500 C.ar   43  PHE43      -0.0042
     35  CD2       12.9240   25.3610   30.8290 C.ar   43  PHE43      -0.0042
     36  CE1       13.2120   26.2840   28.2380 C.ar   43  PHE43      -0.0003
     37  CE2       13.4840   26.6160   30.6030 C.ar   43  PHE43      -0.0003
     38  CZ        13.6230   27.0900   29.3100 C.ar   43  PHE43      -0.0000
     39  N          7.7120   19.7590   28.5660 N.3    45  HIS45      -0.1226
     40  CA         7.4960   19.0150   27.3590 C.3    45  HIS45       0.1752
     41  C          8.7610   18.3740   26.7820 C.2    45  HIS45       0.2596
     42  O          8.7550   17.7650   25.6940 O.2    45  HIS45      -0.2718
     43  CB         6.9930   19.9860   26.2630 C.3    45  HIS45       0.0759
     44  CG         7.7520   21.2730   26.2050 C.ar   45  HIS45       0.0818
     45  ND1        7.9840   22.1090   27.2770 N.ar   45  HIS45      -0.2268
     46  CD2        8.3090   21.8890   25.1300 C.ar   45  HIS45       0.1154
     47  CE1        8.6710   23.1770   26.8750 C.ar   45  HIS45       0.1986
     48  NE2        8.8930   23.0670   25.5640 N.ar   45  HIS45      -0.2212
     49  N          9.8840   18.5840   27.4820 N.am   46  TRP46      -0.1976
     50  CA        11.1760   18.0780   27.1770 C.3    46  TRP46       0.1640
     51  C         11.3930   16.7410   27.9260 C.2    46  TRP46       0.2290
     52  O         11.1070   16.6150   29.1040 O.2    46  TRP46      -0.2864
     53  CB        12.3220   19.0050   27.6270 C.3    46  TRP46       0.0576
     54  CG        12.5450   20.1580   26.7180 C.ar   46  TRP46       0.0006
     55  CD1       11.9510   20.4190   25.5130 C.ar   46  TRP46       0.0946
     56  CD2       13.5190   21.2050   26.9040 C.ar   46  TRP46       0.0152
     57  NE1       12.4800   21.5590   24.9280 N.ar   46  TRP46      -0.2442
     58  CE2       13.4350   22.0620   25.7800 C.ar   46  TRP46       0.0810
     59  CE3       14.4660   21.4730   27.9020 C.ar   46  TRP46       0.0012
     60  CZ2       14.2480   23.1780   25.6410 C.ar   46  TRP46       0.0191
     61  CZ3       15.2560   22.5780   27.7730 C.ar   46  TRP46       0.0001
     62  CH2       15.1510   23.4180   26.6460 C.ar   46  TRP46       0.0015
     63  N         20.5300   21.4600   22.3550 N.3    58  LYS58      -0.1231
     64  CA        19.9720   22.1880   21.1940 C.3    58  LYS58       0.1693
     65  C         19.4380   23.5540   21.5880 C.2    58  LYS58       0.2592
     66  O         19.7480   24.5630   20.9260 O.2    58  LYS58      -0.2718
     67  CB        18.9860   21.2740   20.5050 C.3    58  LYS58       0.0285
     68  CG        17.7630   21.9000   19.8880 C.3    58  LYS58       0.0035
     69  CD        16.5000   21.4900   20.6450 C.3    58  LYS58       0.0206
     70  CE        16.1430   22.3920   21.7970 C.3    58  LYS58       0.1093
     71  NZ        15.1730   21.8000   22.7530 N.3    58  LYS58      -0.1314
     72  N         18.6640   23.6570   22.6820 N.am   59  HIS59      -0.1976
     73  CA        18.1240   24.9420   23.0430 C.3    59  HIS59       0.1656
     74  C         19.1920   25.8970   23.5110 C.2    59  HIS59       0.2291
     75  O         19.0940   27.0740   23.1490 O.2    59  HIS59      -0.2864
     76  CB        17.0280   24.8260   24.0950 C.3    59  HIS59       0.0771
     77  CG        16.3380   26.1710   24.2200 C.ar   59  HIS59       0.0820
     78  ND1       15.7030   26.7830   23.1590 N.ar   59  HIS59      -0.2267
     79  CD2       16.2040   27.0110   25.2800 C.ar   59  HIS59       0.1154
     80  CE1       15.1980   27.9410   23.5610 C.ar   59  HIS59       0.1986
     81  NE2       15.4890   28.1040   24.8380 N.ar   59  HIS59      -0.2212
     82  N         20.4810   27.8510   20.8340 N.3    62  ILE62      -0.1231
     83  CA        19.4630   28.7840   20.2980 C.3    62  ILE62       0.1692
     84  C         19.5680   30.0940   21.0600 C.2    62  ILE62       0.2591
     85  O         19.6800   31.1690   20.4450 O.2    62  ILE62      -0.2718
     86  CB        18.0680   28.1640   20.2850 C.3    62  ILE62       0.0266
     87  CG1       18.0830   27.0290   19.2510 C.3    62  ILE62       0.0019
     88  CG2       16.9900   29.1850   19.9260 C.3    62  ILE62       0.0020
     89  CD1       16.7570   26.4400   18.8780 C.3    62  ILE62       0.0001
     90  N         19.6730   30.0240   22.3780 N.am   63  ILE63      -0.1980
     91  CA        19.8790   31.1800   23.2340 C.3    63  ILE63       0.1595
     92  C         21.1570   31.9720   22.9520 C.2    63  ILE63       0.2287
     93  O         21.1490   33.2180   22.9740 O.2    63  ILE63      -0.2864
     94  CB        19.9480   30.7320   24.7160 C.3    63  ILE63       0.0276
     95  CG1       18.6470   30.0130   25.1080 C.3    63  ILE63       0.0022
     96  CG2       20.2410   31.9270   25.6000 C.3    63  ILE63       0.0022
     97  CD1       18.7010   29.4700   26.5170 C.3    63  ILE63       0.0001
     98  N         20.8630   34.0230   19.8630 N.3    66  ALA66      -0.1231
     99  CA        20.0160   35.1880   20.0430 C.3    66  ALA66       0.1694
    100  C         20.8210   36.3350   20.6960 C.2    66  ALA66       0.2591
    101  O         20.7120   37.5150   20.3490 O.2    66  ALA66      -0.2718
    102  CB        18.8400   34.8740   20.9790 C.3    66  ALA66       0.0304
    103  N         21.6340   35.9440   21.6900 N.am   67  ILE67      -0.1980
    104  CA        22.4980   36.9080   22.3830 C.3    67  ILE67       0.1595
    105  C         23.5740   37.4130   21.4310 C.2    67  ILE67       0.2287
    106  O         23.8220   38.6210   21.3070 O.2    67  ILE67      -0.2864
    107  CB        23.0630   36.3090   23.6720 C.3    67  ILE67       0.0276
    108  CG1       21.8720   35.8810   24.5430 C.3    67  ILE67       0.0022
    109  CG2       23.9350   37.3130   24.4250 C.3    67  ILE67       0.0022
    110  CD1       22.2790   35.1760   25.8050 C.3    67  ILE67       0.0001
    111  N         14.6810   43.4310   20.0360 N.3    81  MET81      -0.1245
    112  CA        14.1640   42.1930   20.5770 C.3    81  MET81       0.1570
    113  C         12.6660   42.1950   20.8220 C.2    81  MET81       0.2261
    114  O         12.1520   41.3990   21.6060 O.2    81  MET81      -0.2867
    115  CB        14.8280   41.8830   21.9480 C.3    81  MET81       0.0387
    116  CG        16.3320   42.0460   22.0430 C.3    81  MET81       0.0595
    117  SD        17.3340   40.6160   21.6220 S.3    81  MET81      -0.1393
    118  CE        17.2230   39.5860   23.0650 C.3    81  MET81       0.0692
    119  N         10.8010   38.8080   20.4820 N.3    84  LEU84      -0.1245
    120  CA        11.1850   37.9350   21.5810 C.3    84  LEU84       0.1561
    121  C         10.5090   38.3900   22.8770 C.2    84  LEU84       0.2260
    122  O         10.3040   37.5610   23.7740 O.2    84  LEU84      -0.2867
    123  CB        12.6790   37.8980   21.8250 C.3    84  LEU84       0.0270
    124  CG        13.5980   36.7980   21.3450 C.3    84  LEU84       0.0019
    125  CD1       15.0110   37.3520   21.0250 C.3    84  LEU84       0.0001
    126  CD2       13.7430   35.7190   22.4170 C.3    84  LEU84       0.0001
    127  N          6.7220   36.9500   22.7240 N.3    87  LEU87      -0.1231
    128  CA         6.7680   35.5140   22.9210 C.3    87  LEU87       0.1693
    129  C          6.8480   35.1240   24.3870 C.2    87  LEU87       0.2592
    130  O          6.0780   34.3460   24.9200 O.2    87  LEU87      -0.2718
    131  CB         8.0120   34.9520   22.1810 C.3    87  LEU87       0.0284
    132  CG         8.3570   33.4820   22.5030 C.3    87  LEU87       0.0019
    133  CD1        7.1890   32.5820   22.0870 C.3    87  LEU87       0.0001
    134  CD2        9.6500   33.0290   21.8620 C.3    87  LEU87       0.0001
    135  N          7.8610   35.6820   25.0700 N.am   88  HIS88      -0.1976
    136  CA         8.1010   35.3650   26.4620 C.3    88  HIS88       0.1656
    137  C          7.0480   36.0690   27.3010 C.2    88  HIS88       0.2291
    138  O          6.7460   35.5690   28.3940 O.2    88  HIS88      -0.2864
    139  CB         9.5240   35.7440   26.8680 C.3    88  HIS88       0.0771
    140  CG        10.6650   34.9210   26.3520 C.ar   88  HIS88       0.0820
    141  ND1       11.2000   35.0670   25.0700 N.ar   88  HIS88      -0.2267
    142  CD2       11.4450   33.9910   26.9700 C.ar   88  HIS88       0.1154
    143  CE1       12.1940   34.2420   24.9060 C.ar   88  HIS88       0.1986
    144  NE2       12.3700   33.5580   26.0370 N.ar   88  HIS88      -0.2212
    145  N          4.6590   32.2750   26.2590 N.3    92  LEU92      -0.1245
    146  CA         5.1990   31.5470   27.3840 C.3    92  LEU92       0.1561
    147  C          4.9520   32.1890   28.7440 C.2    92  LEU92       0.2260
    148  O          5.0270   31.4980   29.7720 O.2    92  LEU92      -0.2867
    149  CB         6.7330   31.4440   27.2250 C.3    92  LEU92       0.0270
    150  CG         7.2850   31.2670   25.8260 C.3    92  LEU92       0.0019
    151  CD1        8.7860   31.5640   25.8000 C.3    92  LEU92       0.0001
    152  CD2        6.9840   29.8600   25.3370 C.3    92  LEU92       0.0001
    153  N          6.7990   34.0890   30.9770 N.3    94  VAL94      -0.1245
    154  CA         7.8580   33.6860   31.8840 C.3    94  VAL94       0.1561
    155  C          7.9200   34.7490   32.9760 C.2    94  VAL94       0.2260
    156  O          7.8950   35.9310   32.6170 O.2    94  VAL94      -0.2867
    157  CB         9.2600   33.6140   31.2560 C.3    94  VAL94       0.0252
    158  CG1       10.3850   33.3860   32.2880 C.3    94  VAL94       0.0019
    159  CG2        9.2670   32.5440   30.1670 C.3    94  VAL94       0.0019
    160  N         13.3570   35.3210   36.3710 N.3    98  ASN98      -0.1225
    161  CA        14.0980   34.2080   35.8840 C.3    98  ASN98       0.1785
    162  C         15.1310   34.6900   34.8850 C.2    98  ASN98       0.2597
    163  O         15.9700   33.8800   34.5120 O.2    98  ASN98      -0.2718
    164  CB        13.1690   33.2170   35.1560 C.3    98  ASN98       0.1169
    165  CG        12.2310   32.5260   36.1200 C.2    98  ASN98       0.2627
    166  OD1       12.6800   31.7660   36.9690 O.2    98  ASN98      -0.2716
    167  ND2       10.9200   32.8090   36.0060 N.am   98  ASN98      -0.0877
    168  N         14.9750   35.9330   34.4440 N.am   99  PHE99      -0.1976
    169  CA        15.9360   36.4980   33.4880 C.3    99  PHE99       0.1639
    170  C         17.2810   36.7400   34.1730 C.2    99  PHE99       0.2290
    171  O         18.3060   36.5840   33.5090 O.2    99  PHE99      -0.2864
    172  CB        15.4520   37.7870   32.8430 C.3    99  PHE99       0.0560
    173  CG        14.3080   37.6280   31.8820 C.ar   99  PHE99      -0.0200
    174  CD1       14.3730   36.6960   30.8520 C.ar   99  PHE99      -0.0042
    175  CD2       13.1640   38.3960   32.0010 C.ar   99  PHE99      -0.0042
    176  CE1       13.3270   36.5390   29.9670 C.ar   99  PHE99      -0.0003
    177  CE2       12.1110   38.2430   31.1130 C.ar   99  PHE99      -0.0003
    178  CZ        12.1850   37.3140   30.1110 C.ar   99  PHE99      -0.0000
    179  N         19.1530   33.1260   34.5910 N.3   102  LEU102     -0.1231
    180  CA        19.8180   32.6830   33.3760 C.3   102  LEU102      0.1693
    181  C         21.1190   33.4790   33.2300 C.2   102  LEU102      0.2592
    182  O         22.1620   32.8600   33.1410 O.2   102  LEU102     -0.2718
    183  CB        18.9620   32.8340   32.1290 C.3   102  LEU102      0.0284
    184  CG        19.6300   32.3650   30.8170 C.3   102  LEU102      0.0019
    185  CD1       20.0400   30.9010   30.9210 C.3   102  LEU102      0.0001
    186  CD2       18.7490   32.5910   29.6040 C.3   102  LEU102      0.0001
    187  N         21.0170   34.7920   33.2880 N.am  103  SER103     -0.1952
    188  CA        22.1050   35.7480   33.2330 C.3   103  SER103      0.1924
    189  C         23.2230   35.4380   34.2310 C.2   103  SER103      0.2314
    190  O         24.3960   35.4570   33.8400 O.2   103  SER103     -0.2863
    191  CB        21.5950   37.1830   33.4670 C.3   103  SER103      0.2116
    192  OG        20.8760   37.6590   32.3050 O.3   103  SER103     -0.2180
    193  N         25.1390   32.3400   32.9160 N.3   106  ILE106     -0.1245
    194  CA        25.9680   32.5670   31.7190 C.3   106  ILE106      0.1561
    195  C         27.2760   33.1800   32.2440 C.2   106  ILE106      0.2260
    196  O         28.3510   32.8040   31.7660 O.2   106  ILE106     -0.2867
    197  CB        25.3090   33.4250   30.6410 C.3   106  ILE106      0.0252
    198  CG1       24.2840   32.6390   29.7730 C.3   106  ILE106      0.0019
    199  CG2       26.3200   34.0890   29.7050 C.3   106  ILE106      0.0019
    200  CD1       23.2270   33.5460   29.1410 C.3   106  ILE106      0.0001
    201  N         23.9240   42.1340   29.5060 N.3   130  LEU130     -0.1245
    202  CA        23.0390   41.0500   29.8470 C.3   130  LEU130      0.1561
    203  C         21.8110   41.5690   30.5700 C.2   130  LEU130      0.2260
    204  O         20.7190   41.0200   30.3630 O.2   130  LEU130     -0.2867
    205  CB        23.7810   40.0580   30.7490 C.3   130  LEU130      0.0270
    206  CG        24.1340   38.6820   30.1900 C.3   130  LEU130      0.0019
    207  CD1       24.2750   38.7240   28.6770 C.3   130  LEU130      0.0001
    208  CD2       25.3860   38.1330   30.8390 C.3   130  LEU130      0.0001
    209  N         19.7200   43.2750   27.9950 N.3   133  VAL133     -0.1231
    210  CA        19.0530   42.3020   27.1200 C.3   133  VAL133      0.1692
    211  C         17.8040   41.7900   27.8640 C.2   133  VAL133      0.2592
    212  O         16.7690   41.5190   27.2330 O.2   133  VAL133     -0.2718
    213  CB        20.0140   41.1980   26.6780 C.3   133  VAL133      0.0266
    214  CG1       19.3010   39.9570   26.1420 C.3   133  VAL133      0.0020
    215  CG2       20.9050   41.7000   25.5290 C.3   133  VAL133      0.0020
    216  N         17.8820   41.6670   29.1910 N.am  134  SER134     -0.1952
    217  CA        16.8370   41.2290   30.0730 C.3   134  SER134      0.1924
    218  C         15.7790   42.3440   30.1270 C.2   134  SER134      0.2314
    219  O         14.5960   42.0450   30.0760 O.2   134  SER134     -0.2863
    220  CB        17.2720   40.9530   31.5150 C.3   134  SER134      0.2116
    221  OG        18.2240   39.9080   31.5580 O.3   134  SER134     -0.2180
    222  N         13.7410   42.3630   26.7640 N.3   137  LEU137     -0.1245
    223  CA        12.8780   41.1910   26.7820 C.3   137  LEU137      0.1561
    224  C         11.6670   41.3570   27.6900 C.2   137  LEU137      0.2260
    225  O         10.5950   40.8500   27.3740 O.2   137  LEU137     -0.2867
    226  CB        13.6980   39.9510   27.2260 C.3   137  LEU137      0.0270
    227  CG        14.5190   39.2260   26.1620 C.3   137  LEU137      0.0019
    228  CD1       14.9590   37.8670   26.6800 C.3   137  LEU137      0.0001
    229  CD2       13.7100   39.0150   24.9020 C.3   137  LEU137      0.0001
@<TRIPOS>BOND
     1    89    87    1
     2    87    86    1
     3    98    99    1
     4    68    67    1
     5    68    69    1
     6    88    86    1
     7   111   112    1
     8    99   100    1
     9    99   102    1
    10    86    83    1
    11    83    82    1
    12    83    84    1
    13   101   100    2
    14    85    84    2
    15   119   120    1
    16    67    64    1
    17   112   113    1
    18   112   115    1
    19    69    70    1
    20   100   103   am
    21   113   114    2
    22    66    65    2
    23   125   124    1
    24    84    90   am
    25    64    65    1
    26    64    63    1
    27   106   105    2
    28   124   123    1
    29   124   126    1
    30   105   104    1
    31   120   123    1
    32   120   121    1
    33    65    72   am
    34   117   116    1
    35   117   118    1
    36   103   104    1
    37    70    71    1
    38   134   132    1
    39   115   116    1
    40   133   132    1
    41   131   132    1
    42   131   128    1
    43    90    91    1
    44   104   107    1
    45    72    73    1
    46   127   128    1
    47   121   122    2
    48   128   129    1
    49    92    93    2
    50    92    91    1
    51    73    74    1
    52    73    76    1
    53    75    74    2
    54    78    80   ar
    55    78    77   ar
    56    91    94    1
    57    80    81   ar
    58   107   109    1
    59   107   108    1
    60    76    77    1
    61    77    79   ar
    62   129   130    2
    63   129   135   am
    64   108   110    1
    65    94    95    1
    66    94    96    1
    67    81    79   ar
    68   229   227    1
    69   143   141   ar
    70   143   144   ar
    71    57    55   ar
    72    57    58   ar
    73   135   136    1
    74   141   140   ar
    75    95    97    1
    76    46    48   ar
    77    46    44   ar
    78   152   150    1
    79    55    54   ar
    80   215   213    1
    81    48    47   ar
    82    60    58   ar
    83    60    62   ar
    84    42    41    2
    85    58    56   ar
    86   151   150    1
    87   150   149    1
    88   144   142   ar
    89   214   213    1
    90   227   228    1
    91   227   226    1
    92    44    43    1
    93    44    45   ar
    94   145   146    1
    95    43    40    1
    96   140   139    1
    97   140   142   ar
    98   136   139    1
    99   136   137    1
   100    62    61   ar
   101   213   210    1
   102    54    56   ar
   103    54    53    1
   104   222   223    1
   105   223   226    1
   106   223   224    1
   107    41    40    1
   108    41    49   am
   109    47    45   ar
   110    56    59   ar
   111   210   211    1
   112   210   209    1
   113    50    49    1
   114    50    53    1
   115    50    51    1
   116   149   146    1
   117   212   211    2
   118   137   138    2
   119    40    39    1
   120   225   224    2
   121   146   147    1
   122    61    59   ar
   123   211   216   am
   124    51    52    2
   125    36    34   ar
   126    36    38   ar
   127    34    33   ar
   128   207   206    1
   129   147   148    2
   130   200   198    1
   131   216   217    1
   132    38    37   ar
   133    19    18    2
   134   201   202    1
   135   186   184    1
   136    31    30    2
   137   199   197    1
   138    33    32    1
   139    33    35   ar
   140   198   197    1
   141   202   203    1
   142   202   205    1
   143   176   178   ar
   144   176   174   ar
   145    29    32    1
   146    29    30    1
   147    29    28    1
   148   217   218    1
   149   217   220    1
   150   219   218    2
   151   178   177   ar
   152   159   157    1
   153   206   205    1
   154   206   208    1
   155   204   203    2
   156    18    28   am
   157    18    17    1
   158    37    35   ar
   159   197   194    1
   160   184   185    1
   161   184   183    1
   162   174   173   ar
   163   153   154    1
   164   177   175   ar
   165   157   154    1
   166   157   158    1
   167   220   221    1
   168    20    17    1
   169    20    21    1
   170    17    16    1
   171   194   195    1
   172   194   193    1
   173   196   195    2
   174   173   175   ar
   175   173   172    1
   176   154   155    1
   177    22    21   ar
   178    22    24   ar
   179   183   180    1
   180   192   191    1
   181    21    23   ar
   182   156   155    2
   183     8     7    1
   184   172   169    1
   185    24    26   ar
   186   182   181    2
   187   181   187   am
   188   181   180    1
   189   188   187    1
   190   188   191    1
   191   188   189    1
   192   180   179    1
   193   169   170    1
   194   169   168    1
   195   171   170    2
   196     7     6    1
   197    23    25   ar
   198   190   189    2
   199    12    11    2
   200    26    25   ar
   201    26    27    1
   202     5     6    1
   203     5     2    1
   204   168   162   am
   205   163   162    2
   206   162   161    1
   207     1     2    1
   208   164   161    1
   209   164   165    1
   210    11    10    1
   211     2     3    1
   212    13    14    1
   213    13    10    1
   214    13    15    1
   215   161   160    1
   216   167   165   am
   217     3     4    2
   218    10     9    1
   219   165   166    2
