@<TRIPOS>MOLECULE
tmp/1ouyA00.pdb
 185 172 0 0 0
SMALL
GASTEIGER

@<TRIPOS>ATOM
      1  N         47.0120   33.1380   22.8730 N.3    27  VAL27      -0.1231
      2  CA        47.7920   33.0540   24.1080 C.3    27  VAL27       0.1692
      3  C         48.1380   31.6010   24.4030 C.2    27  VAL27       0.2592
      4  O         49.0700   31.3220   25.1510 O.2    27  VAL27      -0.2718
      5  CB        47.0200   33.6040   25.3320 C.3    27  VAL27       0.0266
      6  CG1       47.9080   33.5530   26.5670 C.3    27  VAL27       0.0020
      7  CG2       46.5690   35.0230   25.0730 C.3    27  VAL27       0.0020
      8  N         47.3740   30.6800   23.8240 N.am   28  GLY28      -0.1957
      9  CA        47.6250   29.2680   24.0460 C.3    28  GLY28       0.1869
     10  C         46.4140   28.3790   23.8270 C.2    28  GLY28       0.2309
     11  O         45.2760   28.7610   24.1180 O.2    28  GLY28      -0.2863
     12  N         41.5570   21.6040   26.7360 N.3    32  TYR32      -0.1241
     13  CA        40.5580   22.3990   27.4500 C.3    32  TYR32       0.1605
     14  C         39.8450   23.3480   26.4940 C.2    32  TYR32       0.2264
     15  O         38.6470   23.6050   26.6330 O.2    32  TYR32      -0.2867
     16  CB        41.2380   23.2080   28.5560 C.3    32  TYR32       0.0534
     17  CG        42.3790   24.0750   28.0670 C.ar   32  TYR32      -0.0201
     18  CD1       42.1610   25.3910   27.6440 C.ar   32  TYR32      -0.0009
     19  CD2       43.6830   23.5830   28.0410 C.ar   32  TYR32      -0.0009
     20  CE1       43.2230   26.2000   27.2130 C.ar   32  TYR32       0.0417
     21  CE2       44.7510   24.3760   27.6130 C.ar   32  TYR32       0.0417
     22  CZ        44.5150   25.6860   27.2010 C.ar   32  TYR32       0.1957
     23  OH        45.5770   26.4720   26.7860 O.3    32  TYR32      -0.2866
     24  N         42.6520   29.9980   24.3860 N.3    35  VAL35      -0.1245
     25  CA        42.6030   31.2260   25.1610 C.3    35  VAL35       0.1561
     26  C         43.1710   32.3780   24.3540 C.2    35  VAL35       0.2260
     27  O         44.1860   32.2270   23.6730 O.2    35  VAL35      -0.2867
     28  CB        43.3630   31.0790   26.5000 C.3    35  VAL35       0.0252
     29  CG1       43.3640   32.4040   27.2530 C.3    35  VAL35       0.0019
     30  CG2       42.6930   29.9960   27.3550 C.3    35  VAL35       0.0019
     31  N         41.1990   38.1610   29.2450 N.3    48  ALA48      -0.1245
     32  CA        41.5890   36.8680   28.7130 C.3    48  ALA48       0.1562
     33  C         40.2710   36.1300   28.4960 C.2    48  ALA48       0.2260
     34  O         39.4420   36.0360   29.4090 O.2    48  ALA48      -0.2867
     35  CB        42.4650   36.1200   29.7060 C.3    48  ALA48       0.0290
     36  N         38.4450   32.5520   27.0920 N.3    50  LYS50      -0.1245
     37  CA        38.6800   31.1290   26.8520 C.3    50  LYS50       0.1561
     38  C         37.4780   30.5040   26.1610 C.2    50  LYS50       0.2260
     39  O         36.3510   30.6300   26.6270 O.2    50  LYS50      -0.2867
     40  CB        38.9230   30.4170   28.1840 C.3    50  LYS50       0.0271
     41  CG        39.0970   28.8920   28.1040 C.3    50  LYS50       0.0035
     42  CD        39.1630   28.3240   29.5200 C.3    50  LYS50       0.0206
     43  CE        39.4880   26.8410   29.5360 C.3    50  LYS50       0.1093
     44  NZ        39.4950   26.2980   30.9270 N.3    50  LYS50      -0.1314
     45  N         32.9090   23.7940   35.8820 N.3    68  GLU68      -0.1245
     46  CA        33.7430   24.9750   35.7120 C.3    68  GLU68       0.1567
     47  C         32.9280   26.2650   35.7270 C.2    68  GLU68       0.2260
     48  O         33.2900   27.2260   36.4100 O.2    68  GLU68      -0.2867
     49  CB        34.5610   24.8810   34.4230 C.3    68  GLU68       0.0388
     50  CG        35.3940   26.1340   34.1530 C.3    68  GLU68       0.1160
     51  CD        36.4320   25.9330   33.0670 C.2    68  GLU68       0.3649
     52  OE1       36.1460   25.1720   32.1140 O.co2  68  GLU68      -0.2457
     53  OE2       37.5280   26.5370   33.1600 O.co2  68  GLU68      -0.2457
     54  N         33.4080   29.2540   38.6020 N.3    72  LEU72      -0.1245
     55  CA        33.7820   30.6080   38.2110 C.3    72  LEU72       0.1561
     56  C         32.6890   31.6230   38.5290 C.2    72  LEU72       0.2260
     57  O         32.9850   32.7480   38.9290 O.2    72  LEU72      -0.2867
     58  CB        34.1180   30.6460   36.7180 C.3    72  LEU72       0.0270
     59  CG        35.2840   29.7650   36.2530 C.3    72  LEU72       0.0019
     60  CD1       35.3030   29.7100   34.7350 C.3    72  LEU72       0.0001
     61  CD2       36.5890   30.3090   36.7880 C.3    72  LEU72       0.0001
     62  N         40.3570   34.3350   40.6920 N.3    81  ILE81      -0.1245
     63  CA        39.8970   34.6900   39.3610 C.3    81  ILE81       0.1561
     64  C         38.3810   34.8760   39.3430 C.2    81  ILE81       0.2260
     65  O         37.6240   33.9370   39.6130 O.2    81  ILE81      -0.2867
     66  CB        40.2700   33.5890   38.3500 C.3    81  ILE81       0.0252
     67  CG1       39.8590   34.0100   36.9480 C.3    81  ILE81       0.0019
     68  CG2       39.5750   32.2770   38.7280 C.3    81  ILE81       0.0019
     69  CD1       40.1020   32.9520   35.9120 C.3    81  ILE81       0.0001
     70  N         34.7680   36.0650   37.3180 N.3    83  LEU83      -0.1245
     71  CA        34.2230   35.9350   35.9690 C.3    83  LEU83       0.1561
     72  C         33.6150   37.2780   35.5570 C.2    83  LEU83       0.2260
     73  O         32.6100   37.7130   36.1210 O.2    83  LEU83      -0.2867
     74  CB        33.1620   34.8360   35.9620 C.3    83  LEU83       0.0270
     75  CG        32.7210   34.2100   34.6490 C.3    83  LEU83       0.0019
     76  CD1       33.8780   33.4710   33.9820 C.3    83  LEU83       0.0001
     77  CD2       31.5950   33.2530   34.9390 C.3    83  LEU83       0.0001
     78  N         34.4670   32.1180   28.0730 N.3   101  LEU101     -0.1231
     79  CA        34.6260   32.6680   29.4180 C.3   101  LEU101      0.1693
     80  C         35.5630   33.8790   29.4040 C.2   101  LEU101      0.2592
     81  O         36.6060   33.8560   28.7390 O.2   101  LEU101     -0.2718
     82  CB        35.1780   31.5910   30.3510 C.3   101  LEU101      0.0284
     83  CG        34.3290   30.3060   30.4090 C.3   101  LEU101      0.0019
     84  CD1       35.1250   29.1940   31.0590 C.3   101  LEU101      0.0001
     85  CD2       33.0540   30.5860   31.1740 C.3   101  LEU101      0.0001
     86  N         35.1970   34.9340   30.1310 N.am  102  VAL102     -0.1966
     87  CA        36.0100   36.1420   30.1570 C.3   102  VAL102      0.1727
     88  C         36.4300   36.5440   31.5650 C.2   102  VAL102      0.2617
     89  O         35.5940   36.6070   32.4690 O.2   102  VAL102     -0.2715
     90  CB        35.2480   37.3460   29.5060 C.3   102  VAL102      0.0290
     91  CG1       36.1620   38.5570   29.4000 C.3   102  VAL102      0.0023
     92  CG2       34.7180   36.9620   28.1180 C.3   102  VAL102      0.0023
     93  N         37.7250   36.8090   31.7510 N.am  103  THR103     -0.1937
     94  CA        38.2450   37.2490   33.0540 C.3   103  THR103      0.2028
     95  C         39.3840   38.2510   32.8570 C.2   103  THR103      0.2642
     96  O         39.8300   38.4680   31.7390 O.2   103  THR103     -0.2714
     97  CB        38.7780   36.0680   33.9210 C.3   103  THR103      0.1808
     98  OG1       39.0640   36.5420   35.2410 O.3   103  THR103     -0.2208
     99  CG2       40.0590   35.5010   33.3360 C.3   103  THR103      0.0379
    100  N         39.8510   38.8480   33.9520 N.am  104  HIS104     -0.1959
    101  CA        40.9250   39.8300   33.8840 C.3   104  HIS104      0.1787
    102  C         42.1880   39.2480   33.2820 C.2   104  HIS104      0.2620
    103  O         42.4150   38.0370   33.3430 O.2   104  HIS104     -0.2715
    104  CB        41.2860   40.3540   35.2740 C.3   104  HIS104      0.0785
    105  CG        40.1460   40.9980   35.9900 C.ar  104  HIS104      0.0821
    106  ND1       39.1760   40.2720   36.6480 N.ar  104  HIS104     -0.2267
    107  CD2       39.7950   42.2980   36.1140 C.ar  104  HIS104      0.1154
    108  CE1       38.2750   41.0990   37.1480 C.ar  104  HIS104      0.1986
    109  NE2       38.6270   42.3350   36.8380 N.ar  104  HIS104     -0.2212
    110  N         43.0110   40.1130   32.7010 N.am  105  LEU105     -0.1963
    111  CA        44.2820   39.6860   32.1560 C.3   105  LEU105      0.1728
    112  C         45.2770   40.2070   33.1820 C.2   105  LEU105      0.2616
    113  O         45.3720   41.4120   33.4070 O.2   105  LEU105     -0.2715
    114  CB        44.5400   40.3320   30.8050 C.3   105  LEU105      0.0311
    115  CG        45.7310   39.7960   30.0080 C.3   105  LEU105      0.0022
    116  CD1       45.2940   38.6080   29.1540 C.3   105  LEU105      0.0001
    117  CD2       46.2680   40.8930   29.1140 C.3   105  LEU105      0.0001
    118  N         45.9860   39.2970   33.8410 N.am  106  MET106     -0.1963
    119  CA        46.9650   39.6930   34.8450 C.3   106  MET106      0.1736
    120  C         48.2930   39.9780   34.1660 C.2   106  MET106      0.2617
    121  O         48.9860   40.9340   34.5060 O.2   106  MET106     -0.2715
    122  CB        47.1300   38.5840   35.8820 C.3   106  MET106      0.0427
    123  CG        45.8630   38.2870   36.6460 C.3   106  MET106      0.0599
    124  SD        45.1090   39.7900   37.2740 S.3   106  MET106     -0.1393
    125  CE        46.1670   40.1740   38.7050 C.3   106  MET106      0.0692
    126  N         48.6430   39.1270   33.2100 N.am  107  GLY107     -0.1940
    127  CA        49.8810   39.3160   32.4870 C.3   107  GLY107      0.2014
    128  C         50.9530   38.2650   32.7080 C.2   107  GLY107      0.2639
    129  O         51.6030   37.8340   31.7460 O.2   107  GLY107     -0.2714
    130  N         51.1440   37.8390   33.9560 N.am  108  ALA108     -0.1963
    131  CA        52.1780   36.8530   34.2500 C.3   108  ALA108      0.1728
    132  C         51.8480   35.9340   35.4150 C.2   108  ALA108      0.2616
    133  O         51.2040   36.3510   36.3720 O.2   108  ALA108     -0.2715
    134  CB        53.4960   37.5680   34.5280 C.3   108  ALA108      0.0334
    135  N         52.3050   34.6880   35.3440 N.am  109  ASP109     -0.1971
    136  CA        52.0560   33.7570   36.4350 C.3   109  ASP109      0.1709
    137  C         53.1700   33.8960   37.4580 C.2   109  ASP109      0.2293
    138  O         54.0380   34.7530   37.3220 O.2   109  ASP109     -0.2864
    139  CB        51.9700   32.3110   35.9330 C.3   109  ASP109      0.1436
    140  CG        53.2420   31.8400   35.2830 C.2   109  ASP109      0.3671
    141  OD1       54.3260   32.3430   35.6520 O.co2 109  ASP109     -0.2456
    142  OD2       53.1580   30.9490   34.4070 O.co2 109  ASP109     -0.2456
    143  N         57.1420   33.2280   36.2980 N.3   112  ASN112     -0.1240
    144  CA        57.9060   34.3200   35.7140 C.3   112  ASN112      0.1653
    145  C         58.6590   35.0660   36.7950 C.2   112  ASN112      0.2266
    146  O         59.8850   35.1740   36.7600 O.2   112  ASN112     -0.2867
    147  CB        56.9700   35.2710   34.9820 C.3   112  ASN112      0.1155
    148  CG        56.3570   34.6370   33.7570 C.2   112  ASN112      0.2627
    149  OD1       55.3150   35.0780   33.2740 O.2   112  ASN112     -0.2716
    150  ND2       57.0060   33.5950   33.2380 N.am  112  ASN112     -0.0877
    151  N         52.0820   28.1660   38.1730 N.3   151  SER151     -0.1217
    152  CA        51.4710   28.4710   36.8790 C.3   151  SER151      0.1889
    153  C         49.9630   28.7320   36.9750 C.2   151  SER151      0.2288
    154  O         49.3480   29.2270   36.0260 O.2   151  SER151     -0.2866
    155  CB        51.7460   27.3440   35.8780 C.3   151  SER151      0.2089
    156  OG        51.0660   26.1530   36.2200 O.3   151  SER151     -0.2183
    157  N         48.2970   33.9370   39.0800 N.3   154  ALA154     -0.1245
    158  CA        48.5310   35.1170   38.2590 C.3   154  ALA154      0.1562
    159  C         48.9010   36.3420   39.0790 C.2   154  ALA154      0.2260
    160  O         48.3260   36.5990   40.1360 O.2   154  ALA154     -0.2867
    161  CB        47.2990   35.4090   37.4340 C.3   154  ALA154      0.0290
    162  N         43.9920   30.7470   40.0640 N.3   164  LEU164     -0.1231
    163  CA        43.2920   30.3220   38.8590 C.3   164  LEU164      0.1693
    164  C         43.1660   28.8110   38.7010 C.2   164  LEU164      0.2592
    165  O         43.7610   28.0260   39.4470 O.2   164  LEU164     -0.2718
    166  CB        43.9950   30.8660   37.6050 C.3   164  LEU164      0.0284
    167  CG        44.6970   32.2300   37.6570 C.3   164  LEU164      0.0019
    168  CD1       45.4100   32.4580   36.3300 C.3   164  LEU164      0.0001
    169  CD2       43.6980   33.3610   37.9330 C.3   164  LEU164      0.0001
    170  N         42.3850   28.4350   37.6920 N.am  165  ASP165     -0.1974
    171  CA        42.1330   27.0500   37.3340 C.3   165  ASP165      0.1709
    172  C         41.2830   26.2390   38.2940 C.2   165  ASP165      0.2293
    173  O         41.7680   25.6720   39.2720 O.2   165  ASP165     -0.2864
    174  CB        43.4570   26.3410   37.0460 C.3   165  ASP165      0.1436
    175  CG        44.0610   26.7780   35.7210 C.2   165  ASP165      0.3671
    176  OD1       43.6440   27.8420   35.2110 O.co2 165  ASP165     -0.2456
    177  OD2       44.9480   26.0730   35.1910 O.co2 165  ASP165     -0.2456
    178  N         38.8450   22.0170   36.1000 N.3   168  LEU168     -0.1245
    179  CA        39.5290   21.5960   34.8790 C.3   168  LEU168      0.1561
    180  C         39.6460   20.0720   34.8780 C.2   168  LEU168      0.2260
    181  O         39.6630   19.4440   35.9440 O.2   168  LEU168     -0.2867
    182  CB        40.9260   22.2270   34.7890 C.3   168  LEU168      0.0270
    183  CG        40.9880   23.7490   34.5490 C.3   168  LEU168      0.0019
    184  CD1       42.4350   24.2040   34.5270 C.3   168  LEU168      0.0001
    185  CD2       40.3060   24.1050   33.2310 C.3   168  LEU168      0.0001
@<TRIPOS>BOND
     1     1     2    1
     2    27    26    2
     3     8     9    1
     4     8     3   am
     5    10     9    1
     6    10    11    2
     7     2     3    1
     8     2     5    1
     9    26    25    1
    10    24    25    1
    11     3     4    2
    12     7     5    1
    13    25    28    1
    14     5     6    1
    15    38    39    2
    16    38    37    1
    17    14    15    2
    18    14    13    1
    19    28    29    1
    20    28    30    1
    21    12    13    1
    22    23    22    1
    23    37    36    1
    24    37    40    1
    25    22    20   ar
    26    22    21   ar
    27    20    18   ar
    28    13    16    1
    29    21    19   ar
    30    18    17   ar
    31    19    17   ar
    32    17    16    1
    33    78    79    1
    34    41    40    1
    35    41    42    1
    36    92    90    1
    37    33    32    1
    38    33    34    2
    39    32    31    1
    40    32    35    1
    41    81    80    2
    42   117   115    1
    43   116   115    1
    44    91    90    1
    45    80    79    1
    46    80    86   am
    47    79    82    1
    48    90    87    1
    49    42    43    1
    50    43    44    1
    51   115   114    1
    52    86    87    1
    53    87    88    1
    54    82    83    1
    55    83    84    1
    56    83    85    1
    57   114   111    1
    58    88    93   am
    59    88    89    2
    60    96    95    2
    61   129   128    2
    62    93    94    1
    63    52    51   ar
    64   111   110    1
    65   111   112    1
    66   127   128    1
    67   127   126    1
    68   110   102   am
    69   128   130   am
    70    95    94    1
    71    95   100   am
    72    94    97    1
    73    51    53   ar
    74    51    50    1
    75   112   113    2
    76   112   118   am
    77   126   120   am
    78   185   183    1
    79   150   148   am
    80   149   148    2
    81   102   103    2
    82   102   101    1
    83    99    97    1
    84   148   147    1
    85   118   119    1
    86   101   100    1
    87   101   104    1
    88    97    98    1
    89   130   131    1
    90    76    75    1
    91    50    49    1
    92   120   121    2
    93   120   119    1
    94   131   134    1
    95   131   132    1
    96   142   140   ar
    97    49    46    1
    98   184   183    1
    99   183   182    1
   100    75    77    1
   101    75    74    1
   102    60    59    1
   103   182   179    1
   104   119   122    1
   105   180   179    1
   106   180   181    2
   107   179   178    1
   108   147   144    1
   109   177   175   ar
   110   176   175   ar
   111   104   105    1
   112   140   141   ar
   113   140   139    1
   114   135   132   am
   115   135   136    1
   116   132   133    2
   117    72    71    1
   118    72    73    2
   119    46    47    1
   120    46    45    1
   121   144   143    1
   122   144   145    1
   123   175   174    1
   124    47    48    2
   125   155   156    1
   126   155   152    1
   127   122   123    1
   128    69    67    1
   129   139   136    1
   130    74    71    1
   131    71    70    1
   132   105   107   ar
   133   105   106   ar
   134   154   153    2
   135   107   109   ar
   136    59    58    1
   137    59    61    1
   138   168   167    1
   139   136   137    1
   140   123   124    1
   141   106   108   ar
   142    58    55    1
   143   146   145    2
   144   109   108   ar
   145   152   153    1
   146   152   151    1
   147    67    66    1
   148   174   171    1
   149   124   125    1
   150   138   137    2
   151   171   170    1
   152   171   172    1
   153   161   158    1
   154   166   167    1
   155   166   163    1
   156   167   169    1
   157   170   164   am
   158    55    56    1
   159    55    54    1
   160   158   159    1
   161   158   157    1
   162   172   173    2
   163    66    68    1
   164    66    63    1
   165    56    57    2
   166   164   163    1
   167   164   165    2
   168   163   162    1
   169   159   160    2
   170    64    63    1
   171    64    65    2
   172    63    62    1
