@<TRIPOS>MOLECULE
tmp/1oveA00.pdb
 179 168 0 0 0
SMALL
GASTEIGER

@<TRIPOS>ATOM
      1  N         24.0890   10.6400   40.1280 N.3    27  VAL27      -0.1245
      2  CA        25.1470   10.4500   39.1410 C.3    27  VAL27       0.1561
      3  C         26.2140   11.5390   39.1740 C.2    27  VAL27       0.2260
      4  O         27.3490   11.3330   38.7270 O.2    27  VAL27      -0.2867
      5  CB        24.5880   10.3630   37.7060 C.3    27  VAL27       0.0252
      6  CG1       23.6810    9.1690   37.5900 C.3    27  VAL27       0.0019
      7  CG2       23.8500   11.6390   37.3460 C.3    27  VAL27       0.0019
      8  N         24.7160   20.1450   36.9550 N.3    31  ALA31      -0.1231
      9  CA        23.5090   19.7910   36.2010 C.3    31  ALA31       0.1694
     10  C         23.1870   18.3220   36.3110 C.2    31  ALA31       0.2592
     11  O         22.1370   17.8700   35.8410 O.2    31  ALA31      -0.2718
     12  CB        23.6750   20.1620   34.7390 C.3    31  ALA31       0.0304
     13  N         24.1060   17.5810   36.9200 N.am   32  TYR32      -0.1976
     14  CA        23.9440   16.1470   37.1370 C.3    32  TYR32       0.1639
     15  C         23.3900   15.8940   38.5500 C.2    32  TYR32       0.2290
     16  O         23.1880   14.7470   38.9600 O.2    32  TYR32      -0.2864
     17  CB        25.2980   15.4580   36.9690 C.3    32  TYR32       0.0560
     18  CG        25.6370   15.1080   35.5370 C.ar   32  TYR32      -0.0198
     19  CD1       25.1530   13.9360   34.9640 C.ar   32  TYR32      -0.0009
     20  CD2       26.4840   15.9160   34.7700 C.ar   32  TYR32      -0.0009
     21  CE1       25.5130   13.5600   33.6650 C.ar   32  TYR32       0.0417
     22  CE2       26.8490   15.5530   33.4680 C.ar   32  TYR32       0.0417
     23  CZ        26.3610   14.3720   32.9230 C.ar   32  TYR32       0.1957
     24  OH        26.7030   13.9860   31.6390 O.3    32  TYR32      -0.2866
     25  N         19.8210   14.2200   38.6600 N.3    35  VAL35      -0.1245
     26  CA        19.7210   12.9580   37.9610 C.3    35  VAL35       0.1561
     27  C         20.2810   11.8220   38.8040 C.2    35  VAL35       0.2260
     28  O         21.2830   11.9840   39.5140 O.2    35  VAL35      -0.2867
     29  CB        20.4960   13.0050   36.6310 C.3    35  VAL35       0.0252
     30  CG1       20.3410   11.6980   35.8890 C.3    35  VAL35       0.0019
     31  CG2       19.9790   14.1540   35.7760 C.3    35  VAL35       0.0019
     32  N         17.8980    6.2320   33.8280 N.3    48  ALA48      -0.1245
     33  CA        18.3110    7.4950   34.4120 C.3    48  ALA48       0.1562
     34  C         17.0060    8.2450   34.7040 C.2    48  ALA48       0.2260
     35  O         16.1000    8.2840   33.8590 O.2    48  ALA48      -0.2867
     36  CB        19.2170    8.2880   33.4060 C.3    48  ALA48       0.0290
     37  N         15.4580   11.9010   35.9990 N.3    50  LYS50      -0.1245
     38  CA        15.7330   13.3070   36.2460 C.3    50  LYS50       0.1561
     39  C         14.5240   13.9100   36.9080 C.2    50  LYS50       0.2260
     40  O         13.3990   13.8170   36.3900 O.2    50  LYS50      -0.2867
     41  CB        16.0070   14.0530   34.9450 C.3    50  LYS50       0.0271
     42  CG        16.3160   15.5170   35.1790 C.3    50  LYS50       0.0035
     43  CD        15.8090   16.4050   34.0540 C.3    50  LYS50       0.0206
     44  CE        16.6390   16.2620   32.7970 C.3    50  LYS50       0.1093
     45  NZ        16.7870   17.6180   32.1620 N.3    50  LYS50      -0.1314
     46  N         10.2250   20.8920   27.7110 N.3    68  GLU68      -0.1245
     47  CA        11.0420   19.6960   27.8000 C.3    68  GLU68       0.1567
     48  C         10.2130   18.4100   27.7610 C.2    68  GLU68       0.2260
     49  O         10.5790   17.4360   27.0850 O.2    68  GLU68      -0.2867
     50  CB        11.9200   19.7180   29.0610 C.3    68  GLU68       0.0388
     51  CG        12.7770   18.4510   29.1570 C.3    68  GLU68       0.1160
     52  CD        13.9170   18.5470   30.1720 C.2    68  GLU68       0.3649
     53  OE1       13.9040   19.4910   30.9990 O.co2  68  GLU68      -0.2457
     54  OE2       14.8150   17.6690   30.1350 O.co2  68  GLU68      -0.2457
     55  N         10.6380   15.5000   24.8770 N.3    72  LEU72      -0.1245
     56  CA        10.9780   14.1250   25.2500 C.3    72  LEU72       0.1561
     57  C          9.8900   13.1270   24.8950 C.2    72  LEU72       0.2260
     58  O         10.1920   12.0140   24.4530 O.2    72  LEU72      -0.2867
     59  CB        11.2840   14.0400   26.7510 C.3    72  LEU72       0.0270
     60  CG        12.5870   14.7470   27.1580 C.3    72  LEU72       0.0019
     61  CD1       12.6630   14.8460   28.6660 C.3    72  LEU72       0.0001
     62  CD2       13.7940   13.9660   26.6200 C.3    72  LEU72       0.0001
     63  N         17.4680   10.5700   22.8110 N.3    81  ILE81      -0.1245
     64  CA        16.9830   10.3180   24.1590 C.3    81  ILE81       0.1561
     65  C         15.4580   10.5180   24.1710 C.2    81  ILE81       0.2260
     66  O         14.9510   11.5470   23.7330 O.2    81  ILE81      -0.2867
     67  CB        17.6570   11.2730   25.1830 C.3    81  ILE81       0.0252
     68  CG1       17.6470   10.6440   26.5760 C.3    81  ILE81       0.0019
     69  CG2       16.9090   12.5760   25.2650 C.3    81  ILE81       0.0019
     70  CD1       18.4960    9.3610   26.6740 C.3    81  ILE81       0.0001
     71  N         11.4550    9.1550   26.2360 N.3    83  LEU83      -0.1245
     72  CA        10.8810    8.7690   27.5130 C.3    83  LEU83       0.1561
     73  C         10.4420    7.3400   27.6850 C.2    83  LEU83       0.2260
     74  O          9.5880    6.8330   26.9530 O.2    83  LEU83      -0.2867
     75  CB         9.6910    9.6510   27.8500 C.3    83  LEU83       0.0270
     76  CG         9.9550   11.0860   28.2800 C.3    83  LEU83       0.0019
     77  CD1        8.6350   11.7380   28.5580 C.3    83  LEU83       0.0001
     78  CD2       10.8370   11.1290   29.5270 C.3    83  LEU83       0.0001
     79  N         11.3690   12.3350   35.0050 N.3   101  LEU101     -0.1245
     80  CA        11.5310   11.8420   33.6370 C.3   101  LEU101      0.1561
     81  C         12.4900   10.6390   33.6200 C.2   101  LEU101      0.2260
     82  O         13.6200   10.7350   34.0950 O.2   101  LEU101     -0.2867
     83  CB        12.0940   12.9770   32.7740 C.3   101  LEU101      0.0270
     84  CG        11.2600   14.2670   32.7690 C.3   101  LEU101      0.0019
     85  CD1       12.1140   15.4760   32.4160 C.3   101  LEU101      0.0001
     86  CD2       10.0940   14.0920   31.7850 C.3   101  LEU101      0.0001
     87  N         14.6210    7.7190   31.4490 N.3   103  THR103     -0.1203
     88  CA        15.1190    7.3370   30.1410 C.3   103  THR103      0.1994
     89  C         16.2300    6.3200   30.2860 C.2   103  THR103      0.2618
     90  O         16.5510    5.8880   31.3950 O.2   103  THR103     -0.2717
     91  CB        15.6330    8.5610   29.3230 C.3   103  THR103      0.1784
     92  OG1       15.9110    8.1460   27.9680 O.3   103  THR103     -0.2211
     93  CG2       16.8880    9.1300   29.9440 C.3   103  THR103      0.0376
     94  N         16.8100    5.9140   29.1610 N.am  104  HIS104     -0.1961
     95  CA        17.8760    4.9400   29.2130 C.3   104  HIS104      0.1787
     96  C         19.1300    5.5040   29.8640 C.2   104  HIS104      0.2620
     97  O         19.4250    6.6920   29.7410 O.2   104  HIS104     -0.2715
     98  CB        18.2470    4.4540   27.8120 C.3   104  HIS104      0.0785
     99  CG        17.1780    3.6660   27.1350 C.ar  104  HIS104      0.0821
    100  ND1       16.2290    4.2490   26.3190 N.ar  104  HIS104     -0.2267
    101  CD2       16.9420    2.3310   27.1010 C.ar  104  HIS104      0.1154
    102  CE1       15.4590    3.3050   25.8020 C.ar  104  HIS104      0.1986
    103  NE2       15.8710    2.1320   26.2600 N.ar  104  HIS104     -0.2212
    104  N         19.8630    4.6400   30.5640 N.am  105  LEU105     -0.1963
    105  CA        21.1230    5.0470   31.1870 C.3   105  LEU105      0.1728
    106  C         22.1990    4.6190   30.2010 C.2   105  LEU105      0.2616
    107  O         22.3120    3.4400   29.8890 O.2   105  LEU105     -0.2715
    108  CB        21.3540    4.3130   32.5140 C.3   105  LEU105      0.0311
    109  CG        22.7210    4.5820   33.1490 C.3   105  LEU105      0.0022
    110  CD1       22.7730    6.0230   33.5920 C.3   105  LEU105      0.0001
    111  CD2       22.9630    3.6810   34.3520 C.3   105  LEU105      0.0001
    112  N         22.9590    5.5780   29.6720 N.am  106  MET106     -0.1963
    113  CA        24.0460    5.2500   28.7510 C.3   106  MET106      0.1736
    114  C         25.2980    5.2280   29.6410 C.2   106  MET106      0.2617
    115  O         26.1570    4.3620   29.5030 O.2   106  MET106     -0.2715
    116  CB        24.1660    6.3210   27.6580 C.3   106  MET106      0.0427
    117  CG        22.9200    6.4600   26.8040 C.3   106  MET106      0.0599
    118  SD        22.4020    4.8930   26.0650 S.3   106  MET106     -0.1393
    119  CE        23.4550    4.7970   24.6050 C.3   106  MET106      0.0692
    120  N         25.3880    6.2040   30.5420 N.am  107  GLY107     -0.1940
    121  CA        26.4870    6.2470   31.4930 C.3   107  GLY107      0.2014
    122  C         27.6880    7.1310   31.2280 C.2   107  GLY107      0.2639
    123  O         28.5120    7.3220   32.1180 O.2   107  GLY107     -0.2714
    124  N         27.8220    7.6610   30.0190 N.am  108  ALA108     -0.1963
    125  CA        28.9580    8.5470   29.7300 C.3   108  ALA108      0.1728
    126  C         28.6200    9.4400   28.5360 C.2   108  ALA108      0.2616
    127  O         27.6820    9.1400   27.7810 O.2   108  ALA108     -0.2715
    128  CB        30.1970    7.7060   29.4180 C.3   108  ALA108      0.0334
    129  N         29.3510   10.5370   28.3760 N.am  109  ASP109     -0.1971
    130  CA        29.1270   11.3810   27.2140 C.3   109  ASP109      0.1709
    131  C         30.3540   11.2160   26.3140 C.2   109  ASP109      0.2293
    132  O         31.3670   10.6560   26.7430 O.2   109  ASP109     -0.2864
    133  CB        28.9210   12.8430   27.5990 C.3   109  ASP109      0.1436
    134  CG        30.1230   13.4440   28.2630 C.2   109  ASP109      0.3671
    135  OD1       31.2620   13.0850   27.8840 O.co2 109  ASP109     -0.2456
    136  OD2       29.9280   14.2920   29.1570 O.co2 109  ASP109     -0.2456
    137  N         29.3560   16.8970   25.1070 N.3   151  SER151     -0.1202
    138  CA        28.7390   16.7120   26.4130 C.3   151  SER151      0.2020
    139  C         27.2600   16.3840   26.3480 C.2   151  SER151      0.2619
    140  O         26.6860   15.9890   27.3520 O.2   151  SER151     -0.2717
    141  CB        28.9480   17.9490   27.2830 C.3   151  SER151      0.2103
    142  OG        28.2930   19.0710   26.7290 O.3   151  SER151     -0.2182
    143  N         26.6330   16.5430   25.1840 N.am  152  ASN152     -0.1960
    144  CA        25.2100   16.2180   25.0740 C.3   152  ASN152      0.1819
    145  C         24.9830   14.9870   24.2010 C.2   152  ASN152      0.2621
    146  O         23.8860   14.7530   23.7000 O.2   152  ASN152     -0.2715
    147  CB        24.3940   17.4130   24.5470 C.3   152  ASN152      0.1195
    148  CG        24.7620   17.8040   23.1350 C.2   152  ASN152      0.2630
    149  OD1       24.7900   16.9790   22.2290 O.2   152  ASN152     -0.2716
    150  ND2       25.0270   19.0790   22.9400 N.am  152  ASN152     -0.0877
    151  N         26.0520   14.2190   24.0090 N.am  153  LEU153     -0.1963
    152  CA        25.9830   12.9870   23.2570 C.3   153  LEU153      0.1728
    153  C         26.2760   11.8650   24.2480 C.2   153  LEU153      0.2616
    154  O         27.4130   11.7070   24.7040 O.2   153  LEU153     -0.2715
    155  CB        27.0030   13.0140   22.1050 C.3   153  LEU153      0.0311
    156  CG        26.6280   14.0590   21.0220 C.3   153  LEU153      0.0022
    157  CD1       27.7230   14.2180   19.9690 C.3   153  LEU153      0.0001
    158  CD2       25.3160   13.6310   20.3740 C.3   153  LEU153      0.0001
    159  N         25.2420   11.0930   24.5770 N.am  154  ALA154     -0.1977
    160  CA        25.3560    9.9880   25.5380 C.3   154  ALA154      0.1597
    161  C         25.7540    8.6950   24.8500 C.2   154  ALA154      0.2287
    162  O         25.1430    8.2830   23.8630 O.2   154  ALA154     -0.2864
    163  CB        24.0410    9.8020   26.2600 C.3   154  ALA154      0.0319
    164  N         20.9460   14.0240   23.3670 N.3   164  LEU164     -0.1231
    165  CA        20.0670   14.5710   24.3820 C.3   164  LEU164      0.1693
    166  C         20.1420   16.0930   24.4570 C.2   164  LEU164      0.2592
    167  O         20.9400   16.7190   23.7510 O.2   164  LEU164     -0.2718
    168  CB        20.3660   13.9050   25.7160 C.3   164  LEU164      0.0284
    169  CG        21.8330   13.8050   26.0760 C.3   164  LEU164      0.0019
    170  CD1       22.2630   15.1320   26.6370 C.3   164  LEU164      0.0001
    171  CD2       22.0330   12.6930   27.0810 C.3   164  LEU164      0.0001
    172  N         19.2760   16.6730   25.2840 N.am  165  ASP165     -0.1974
    173  CA        19.1660   18.1300   25.4810 C.3   165  ASP165      0.1709
    174  C         18.7670   18.9520   24.2400 C.2   165  ASP165      0.2293
    175  O         19.0310   20.1440   24.1730 O.2   165  ASP165     -0.2864
    176  CB        20.4640   18.6810   26.0850 C.3   165  ASP165      0.1436
    177  CG        20.6360   18.2880   27.5620 C.2   165  ASP165      0.3671
    178  OD1       19.8120   17.4910   28.0930 O.co2 165  ASP165     -0.2456
    179  OD2       21.6000   18.7700   28.2030 O.co2 165  ASP165     -0.2456
@<TRIPOS>BOND
     1   157   156    1
     2   158   156    1
     3   156   155    1
     4   155   152    1
     5   149   148    2
     6    63    64    1
     7   150   148   am
     8   148   147    1
     9   152   151    1
    10   152   153    1
    11   164   165    1
    12   146   145    2
    13    66    65    2
    14   167   166    2
    15   162   161    2
    16   151   145   am
    17    64    65    1
    18    64    67    1
    19   175   174    2
    20   145   144    1
    21   174   173    1
    22   153   159   am
    23   153   154    2
    24   165   166    1
    25   165   168    1
    26    58    57    2
    27   166   172   am
    28   147   144    1
    29   159   160    1
    30   119   118    1
    31   161   160    1
    32    55    56    1
    33    57    56    1
    34   144   143    1
    35   137   138    1
    36    67    69    1
    37    67    68    1
    38   143   139   am
    39    56    59    1
    40   172   173    1
    41   173   176    1
    42   160   163    1
    43   168   169    1
    44   102   103   ar
    45   102   100   ar
    46   118   117    1
    47   169   170    1
    48   169   171    1
    49   176   177    1
    50    71    72    1
    51   103   101   ar
    52   131   132    2
    53   131   130    1
    54   100    99   ar
    55   139   138    1
    56   139   140    2
    57   138   141    1
    58    68    70    1
    59    62    60    1
    60   142   141    1
    61    59    60    1
    62   117   116    1
    63    74    73    2
    64    49    48    2
    65   101    99   ar
    66    99    98    1
    67    60    61    1
    68   130   133    1
    69   130   129    1
    70    72    73    1
    71    72    75    1
    72   177   178   ar
    73   177   179   ar
    74   133   134    1
    75   116   113    1
    76    46    47    1
    77    48    47    1
    78   127   126    2
    79    47    50    1
    80    98    95    1
    81    75    76    1
    82   135   134   ar
    83    92    91    1
    84   134   136   ar
    85    76    77    1
    86    76    78    1
    87   129   126   am
    88   126   125    1
    89   113   114    1
    90   113   112    1
    91    50    51    1
    92    51    52    1
    93    94    95    1
    94    94    89   am
    95    95    96    1
    96    91    93    1
    97    91    88    1
    98   128   125    1
    99   115   114    2
   100   114   120   am
   101   112   106   am
   102   125   124    1
   103    97    96    2
   104    96   104   am
   105   107   106    2
   106   124   122   am
   107    54    52   ar
   108    88    89    1
   109    88    87    1
   110    52    53   ar
   111   106   105    1
   112    89    90    2
   113   120   121    1
   114   104   105    1
   115   105   108    1
   116   122   121    1
   117   122   123    2
   118    24    23    1
   119    86    84    1
   120    45    44    1
   121    85    84    1
   122   108   109    1
   123    84    83    1
   124    83    80    1
   125    44    43    1
   126    23    22   ar
   127    23    21   ar
   128   109   110    1
   129   109   111    1
   130    36    33    1
   131    22    20   ar
   132    81    80    1
   133    81    82    2
   134    80    79    1
   135    21    19   ar
   136    32    33    1
   137    35    34    2
   138    43    42    1
   139    33    34    1
   140    12     9    1
   141    20    18   ar
   142    41    42    1
   143    41    38    1
   144    19    18   ar
   145    18    17    1
   146    31    29    1
   147    11    10    2
   148    30    29    1
   149    37    38    1
   150     9    10    1
   151     9     8    1
   152    38    39    1
   153    10    13   am
   154    40    39    2
   155    29    26    1
   156    13    14    1
   157    17    14    1
   158    14    15    1
   159     7     5    1
   160     6     5    1
   161     5     2    1
   162    26    25    1
   163    26    27    1
   164    15    16    2
   165     4     3    2
   166    27    28    2
   167     2     3    1
   168     2     1    1
