@<TRIPOS>MOLECULE
tmp/1ovhA00.pdb
 117 108 0 0 0
SMALL
GASTEIGER

@<TRIPOS>ATOM
      1  N         24.5830    6.8810   12.2810 N.3    78  ILE78      -0.1245
      2  CA        24.2040    6.2460   11.0230 C.3    78  ILE78       0.1561
      3  C         23.0150    5.3300   11.1870 C.2    78  ILE78       0.2260
      4  O         22.0300    5.3090   10.4050 O.2    78  ILE78      -0.2867
      5  CB        25.3840    5.3430   10.5140 C.3    78  ILE78       0.0252
      6  CG1       26.3360    6.3030    9.8230 C.3    78  ILE78       0.0019
      7  CG2       24.8660    4.3840    9.4010 C.3    78  ILE78       0.0019
      8  CD1       27.7170    5.7650    9.4540 C.3    78  ILE78       0.0001
      9  N         20.1760    6.7190    5.9150 N.3    84  LEU84      -0.1245
     10  CA        21.4800    6.1140    5.9880 C.3    84  LEU84       0.1561
     11  C         21.5520    4.6110    6.2570 C.2    84  LEU84       0.2260
     12  O         22.2640    3.8630    5.5890 O.2    84  LEU84      -0.2867
     13  CB        22.2690    6.8880    7.0550 C.3    84  LEU84       0.0270
     14  CG        22.3130    8.3430    6.7000 C.3    84  LEU84       0.0019
     15  CD1       23.2960    8.9480    7.7020 C.3    84  LEU84       0.0001
     16  CD2       22.7680    8.4910    5.2230 C.3    84  LEU84       0.0001
     17  N         21.4850    1.9670    3.5520 N.3    87  VAL87      -0.1231
     18  CA        22.6260    1.8850    2.7040 C.3    87  VAL87       0.1692
     19  C         23.7970    1.2480    3.4200 C.2    87  VAL87       0.2592
     20  O         24.5410    0.4150    2.9030 O.2    87  VAL87      -0.2718
     21  CB        22.9610    3.2760    2.1150 C.3    87  VAL87       0.0266
     22  CG1       23.9860    3.0760    1.0100 C.3    87  VAL87       0.0020
     23  CG2       21.6930    3.9650    1.6000 C.3    87  VAL87       0.0020
     24  N         24.0170    1.7410    4.6270 N.am   88  TYR88      -0.1976
     25  CA        25.0720    1.2130    5.4140 C.3    88  TYR88       0.1639
     26  C         25.0090   -0.3110    5.5410 C.2    88  TYR88       0.2290
     27  O         25.9940   -1.0580    5.3670 O.2    88  TYR88      -0.2864
     28  CB        24.9100    1.8940    6.7690 C.3    88  TYR88       0.0560
     29  CG        26.0370    1.5210    7.7170 C.ar   88  TYR88      -0.0198
     30  CD1       27.3040    2.1080    7.6430 C.ar   88  TYR88      -0.0009
     31  CD2       25.8100    0.4500    8.5860 C.ar   88  TYR88      -0.0009
     32  CE1       28.2930    1.6790    8.5340 C.ar   88  TYR88       0.0417
     33  CE2       26.7950   -0.0060    9.4600 C.ar   88  TYR88       0.0417
     34  CZ        28.0350    0.6350    9.4250 C.ar   88  TYR88       0.1957
     35  OH        29.0270    0.2640   10.2740 O.3    88  TYR88      -0.2866
     36  N         26.2680   -2.5430    2.7820 N.3    91  LEU91      -0.1245
     37  CA        27.6810   -2.6220    2.4330 C.3    91  LEU91       0.1561
     38  C         28.4680   -3.6590    3.1660 C.2    91  LEU91       0.2260
     39  O         28.0700   -4.0450    4.2830 O.2    91  LEU91      -0.2867
     40  CB        28.3950   -1.3000    2.8040 C.3    91  LEU91       0.0270
     41  CG        27.7120   -0.0760    2.2110 C.3    91  LEU91       0.0019
     42  CD1       27.9740    1.1640    3.0510 C.3    91  LEU91       0.0001
     43  CD2       28.2450    0.0780    0.7960 C.3    91  LEU91       0.0001
     44  N         32.0570    4.7630    5.0720 N.3    99  ALA99      -0.1245
     45  CA        30.8720    5.5420    5.3740 C.3    99  ALA99       0.1562
     46  C         31.0070    6.1910    6.7160 C.2    99  ALA99       0.2260
     47  O         30.6250    7.3380    6.8540 O.2    99  ALA99      -0.2867
     48  CB        29.5420    4.7240    5.3320 C.3    99  ALA99       0.0290
     49  N         33.2360    9.4260    6.3640 N.3   102  GLN102     -0.1231
     50  CA        32.5380   10.5720    5.8680 C.3   102  GLN102      0.1698
     51  C         31.6640   11.1690    6.9460 C.2   102  GLN102      0.2592
     52  O         31.5780   12.3730    7.0590 O.2   102  GLN102     -0.2718
     53  CB        31.5180   10.1980    4.7890 C.3   102  GLN102      0.0381
     54  CG        31.9990   10.5180    3.3960 C.3   102  GLN102      0.0905
     55  CD        30.9380   10.4060    2.3060 C.2   102  GLN102      0.2608
     56  OE1       30.1880    9.4410    2.2230 O.2   102  GLN102     -0.2717
     57  NE2       30.9080   11.3490    1.3990 N.am  102  GLN102     -0.0878
     58  N         30.9320   10.3120    7.6920 N.am  103  VAL103     -0.1980
     59  CA        30.0470   10.8510    8.7210 C.3   103  VAL103      0.1595
     60  C         30.8620   11.5030    9.7840 C.2   103  VAL103      0.2287
     61  O         30.4960   12.5500   10.2720 O.2   103  VAL103     -0.2864
     62  CB        29.1400    9.8090    9.4000 C.3   103  VAL103      0.0276
     63  CG1       28.3690   10.4910   10.5260 C.3   103  VAL103      0.0022
     64  CG2       28.0080    9.4740    8.4750 C.3   103  VAL103      0.0022
     65  N         26.2590   14.3280    5.1000 N.3   111  VAL111     -0.1245
     66  CA        26.1480   13.1410    4.3230 C.3   111  VAL111      0.1561
     67  C         24.7890   12.9530    3.7310 C.2   111  VAL111      0.2260
     68  O         24.7270   12.8680    2.5050 O.2   111  VAL111     -0.2867
     69  CB        26.7970   11.9360    4.9180 C.3   111  VAL111      0.0252
     70  CG1       27.2810   11.1540    3.6860 C.3   111  VAL111      0.0019
     71  CG2       27.9720   12.4630    5.7670 C.3   111  VAL111      0.0019
     72  N         23.9660   13.5300    0.0020 N.3   114  PHE114     -0.1241
     73  CA        24.6730   12.8110   -1.0250 C.3   114  PHE114      0.1605
     74  C         23.7750   11.7090   -1.5510 C.2   114  PHE114      0.2264
     75  O         24.1490   10.5950   -1.9210 O.2   114  PHE114     -0.2867
     76  CB        25.9300   12.2050   -0.4410 C.3   114  PHE114      0.0534
     77  CG        27.1400   13.1220   -0.3780 C.ar  114  PHE114     -0.0203
     78  CD1       27.1330   14.2580    0.4320 C.ar  114  PHE114     -0.0042
     79  CD2       28.3140   12.8280   -1.0820 C.ar  114  PHE114     -0.0042
     80  CE1       28.2540   15.0840    0.5080 C.ar  114  PHE114     -0.0003
     81  CE2       29.4560   13.6250   -1.0190 C.ar  114  PHE114     -0.0003
     82  CZ        29.4070   14.7620   -0.2100 C.ar  114  PHE114     -0.0000
     83  N         24.4570    7.9730   -2.5420 N.3   118  LEU118     -0.1245
     84  CA        24.0020    6.9050   -1.6750 C.3   118  LEU118      0.1561
     85  C         23.2340    5.8590   -2.4550 C.2   118  LEU118      0.2260
     86  O         23.3060    4.6240   -2.2410 O.2   118  LEU118     -0.2867
     87  CB        23.0070    7.4910   -0.6850 C.3   118  LEU118      0.0270
     88  CG        23.6480    8.3730    0.3790 C.3   118  LEU118      0.0019
     89  CD1       22.5280    8.8480    1.3080 C.3   118  LEU118      0.0001
     90  CD2       24.6970    7.6350    1.2260 C.3   118  LEU118      0.0001
     91  N         25.6890    3.7670   -4.3290 N.3   121  LEU121     -0.1245
     92  CA        26.4360    2.8400   -3.4990 C.3   121  LEU121      0.1561
     93  C         25.4660    1.6790   -3.1300 C.2   121  LEU121      0.2260
     94  O         25.7680    0.4800   -3.0600 O.2   121  LEU121     -0.2867
     95  CB        26.8590    3.6400   -2.2520 C.3   121  LEU121      0.0270
     96  CG        28.0020    4.6120   -2.5550 C.3   121  LEU121      0.0019
     97  CD1       28.4250    5.2610   -1.2790 C.3   121  LEU121      0.0001
     98  CD2       29.2430    3.8380   -2.9300 C.3   121  LEU121      0.0001
     99  N         30.6730   10.8890   -6.3870 N.3   133  LEU133     -0.1245
    100  CA        31.1170   11.4260   -5.1070 C.3   133  LEU133      0.1561
    101  C         32.0770   12.5890   -5.2510 C.2   133  LEU133      0.2260
    102  O         32.1880   13.4300   -4.3810 O.2   133  LEU133     -0.2867
    103  CB        31.7730   10.3110   -4.1890 C.3   133  LEU133      0.0270
    104  CG        30.8200    9.3410   -3.4700 C.3   133  LEU133      0.0019
    105  CD1       31.5240    8.0380   -3.1120 C.3   133  LEU133      0.0001
    106  CD2       30.1840    9.9560   -2.2260 C.3   133  LEU133      0.0001
    107  N         35.5640    3.3270   -1.2750 N.3   153  PHE153     -0.1241
    108  CA        34.2240    2.9480   -1.6830 C.3   153  PHE153      0.1605
    109  C         34.2400    2.2480   -3.0090 C.2   153  PHE153      0.2264
    110  O         33.5040    1.2850   -3.3010 O.2   153  PHE153     -0.2867
    111  CB        33.3760    4.2120   -1.8950 C.3   153  PHE153      0.0534
    112  CG        32.7690    4.8110   -0.6550 C.ar  153  PHE153     -0.0203
    113  CD1       32.9360    6.1680   -0.3730 C.ar  153  PHE153     -0.0042
    114  CD2       31.9410    4.0420    0.1830 C.ar  153  PHE153     -0.0042
    115  CE1       32.2990    6.7300    0.7410 C.ar  153  PHE153     -0.0003
    116  CE2       31.3090    4.5910    1.3080 C.ar  153  PHE153     -0.0003
    117  CZ        31.4860    5.9540    1.5710 C.ar  153  PHE153     -0.0000
@<TRIPOS>BOND
     1    99   100    1
     2   101   100    1
     3   101   102    2
     4   100   103    1
     5    91    92    1
     6   103   104    1
     7    92    93    1
     8    92    95    1
     9   104   105    1
    10   104   106    1
    11   110   109    2
    12    93    94    2
    13   109   108    1
    14    98    96    1
    15    96    95    1
    16    96    97    1
    17    83    84    1
    18    85    86    2
    19    85    84    1
    20    75    74    2
    21   111   108    1
    22   111   112    1
    23   108   107    1
    24    84    87    1
    25    74    73    1
    26    79    81   ar
    27    79    77   ar
    28    73    76    1
    29    73    72    1
    30    81    82   ar
    31    87    88    1
    32   112   113   ar
    33   112   114   ar
    34    76    77    1
    35    77    78   ar
    36   113   115   ar
    37    82    80   ar
    38   114   116   ar
    39    88    90    1
    40    88    89    1
    41    78    80   ar
    42   115   117   ar
    43    43    41    1
    44    22    21    1
    45   116   117   ar
    46    57    55   am
    47    23    21    1
    48    21    18    1
    49    41    40    1
    50    41    42    1
    51    56    55    2
    52    55    54    1
    53    37    36    1
    54    37    40    1
    55    37    38    1
    56    68    67    2
    57    18    19    1
    58    18    17    1
    59    20    19    2
    60    38    39    2
    61    54    53    1
    62    19    24   am
    63    70    69    1
    64    67    66    1
    65    66    69    1
    66    66    65    1
    67    24    25    1
    68    53    50    1
    69    69    71    1
    70    44    45    1
    71    16    14    1
    72    48    45    1
    73    27    26    2
    74    45    46    1
    75    25    26    1
    76    25    28    1
    77    12    11    2
    78    50    49    1
    79    50    51    1
    80     9    10    1
    81    10    11    1
    82    10    13    1
    83    14    13    1
    84    14    15    1
    85    46    47    2
    86    28    29    1
    87    51    52    2
    88    51    58   am
    89    30    29   ar
    90    30    32   ar
    91    58    59    1
    92    29    31   ar
    93    64    62    1
    94    32    34   ar
    95    31    33   ar
    96    59    62    1
    97    59    60    1
    98    62    63    1
    99     7     5    1
   100    34    33   ar
   101    34    35    1
   102     8     6    1
   103    60    61    2
   104     6     5    1
   105     4     3    2
   106     5     2    1
   107     2     3    1
   108     2     1    1
