@<TRIPOS>MOLECULE
tmp/1ovjA00.pdb
 117 108 0 0 0
SMALL
GASTEIGER

@<TRIPOS>ATOM
      1  N         24.5610    6.9250   12.2730 N.3    78  ILE78      -0.1245
      2  CA        24.2080    6.3250   11.0230 C.3    78  ILE78       0.1561
      3  C         23.0790    5.3690   11.2180 C.2    78  ILE78       0.2260
      4  O         22.0810    5.3130   10.4700 O.2    78  ILE78      -0.2867
      5  CB        25.3760    5.5170   10.4860 C.3    78  ILE78       0.0252
      6  CG1       26.2570    6.5200    9.7460 C.3    78  ILE78       0.0019
      7  CG2       24.9030    4.4650    9.4460 C.3    78  ILE78       0.0019
      8  CD1       27.6410    5.8790    9.4260 C.3    78  ILE78       0.0001
      9  N         20.1800    6.7220    5.9190 N.3    84  LEU84      -0.1245
     10  CA        21.5250    6.1240    6.0420 C.3    84  LEU84       0.1561
     11  C         21.6330    4.6470    6.3030 C.2    84  LEU84       0.2260
     12  O         22.4550    3.9380    5.7110 O.2    84  LEU84      -0.2867
     13  CB        22.3030    6.8070    7.1810 C.3    84  LEU84       0.0270
     14  CG        22.2750    8.2990    6.9400 C.3    84  LEU84       0.0019
     15  CD1       23.3040    9.0180    7.8030 C.3    84  LEU84       0.0001
     16  CD2       22.6250    8.5060    5.4700 C.3    84  LEU84       0.0001
     17  N         21.4600    2.0460    3.5490 N.3    87  VAL87      -0.1231
     18  CA        22.6060    1.9660    2.6920 C.3    87  VAL87       0.1692
     19  C         23.7680    1.2950    3.4220 C.2    87  VAL87       0.2592
     20  O         24.4970    0.4500    2.9150 O.2    87  VAL87      -0.2718
     21  CB        23.0640    3.3400    2.1710 C.3    87  VAL87       0.0266
     22  CG1       24.1770    3.0670    1.1440 C.3    87  VAL87       0.0020
     23  CG2       21.8940    4.0610    1.4720 C.3    87  VAL87       0.0020
     24  N         23.9980    1.7910    4.6070 N.am   88  TYR88      -0.1976
     25  CA        25.0740    1.2700    5.4040 C.3    88  TYR88       0.1639
     26  C         24.9540   -0.2350    5.5820 C.2    88  TYR88       0.2290
     27  O         25.9180   -0.9420    5.4300 O.2    88  TYR88      -0.2864
     28  CB        25.0100    2.0530    6.7360 C.3    88  TYR88       0.0560
     29  CG        26.0840    1.5910    7.6910 C.ar   88  TYR88      -0.0198
     30  CD1       27.3600    2.1490    7.6190 C.ar   88  TYR88      -0.0009
     31  CD2       25.8320    0.5520    8.5840 C.ar   88  TYR88      -0.0009
     32  CE1       28.3940    1.7440    8.4620 C.ar   88  TYR88       0.0417
     33  CE2       26.8340    0.1210    9.4520 C.ar   88  TYR88       0.0417
     34  CZ        28.0940    0.7220    9.3650 C.ar   88  TYR88       0.1957
     35  OH        29.0490    0.3210   10.2210 O.3    88  TYR88      -0.2866
     36  N         26.2730   -2.5790    2.8150 N.3    91  LEU91      -0.1245
     37  CA        27.6910   -2.6360    2.4280 C.3    91  LEU91       0.1561
     38  C         28.5200   -3.7000    3.1250 C.2    91  LEU91       0.2260
     39  O         28.1360   -4.1140    4.2250 O.2    91  LEU91      -0.2867
     40  CB        28.4040   -1.3110    2.8000 C.3    91  LEU91       0.0270
     41  CG        27.6100   -0.1170    2.2650 C.3    91  LEU91       0.0019
     42  CD1       27.8140    1.2030    3.0390 C.3    91  LEU91       0.0001
     43  CD2       28.0210    0.0570    0.8040 C.3    91  LEU91       0.0001
     44  N         32.0360    4.7810    5.0670 N.3    99  ALA99      -0.1245
     45  CA        30.8440    5.5630    5.3990 C.3    99  ALA99       0.1562
     46  C         31.0520    6.3220    6.7070 C.2    99  ALA99       0.2260
     47  O         30.7280    7.5130    6.9270 O.2    99  ALA99      -0.2867
     48  CB        29.6180    4.5760    5.4410 C.3    99  ALA99       0.0290
     49  N         33.3130    9.3970    6.3590 N.3   102  GLN102     -0.1182
     50  CA        32.6130   10.5900    5.9400 C.3   102  GLN102      0.1914
     51  C         31.7720   11.2690    6.9780 C.2   102  GLN102      0.2634
     52  O         31.7930   12.4840    7.0650 O.2   102  GLN102     -0.2714
     53  CB        31.6230   10.2710    4.8010 C.2   102  GLN102      0.0065
     54  CG        31.9620   10.7950    3.3850 C.2   102  GLN102      0.0585
     55  CD        30.9480   10.4720    2.2880 C.2   102  GLN102      0.2840
     56  OE1       30.4780    9.3500    2.1860 O.2   102  GLN102     -0.2667
     57  NE2       30.5250   11.4680    1.5240 N.am  102  GLN102     -0.0837
     58  N         30.9790   10.4760    7.6960 N.am  103  VAL103     -0.1977
     59  CA        30.1040   11.0270    8.6960 C.3   103  VAL103      0.1596
     60  C         30.8760   11.6860    9.7800 C.2   103  VAL103      0.2287
     61  O         30.3980   12.6570   10.3330 O.2   103  VAL103     -0.2864
     62  CB        29.1910    9.9920    9.3560 C.3   103  VAL103      0.0276
     63  CG1       28.4130   10.6290   10.5130 C.3   103  VAL103      0.0022
     64  CG2       28.1090    9.6470    8.3770 C.3   103  VAL103      0.0022
     65  N         26.4800   14.6970    5.0440 N.3   111  VAL111     -0.1245
     66  CA        26.2740   13.5130    4.2770 C.3   111  VAL111      0.1561
     67  C         24.8450   13.3260    3.8160 C.2   111  VAL111      0.2260
     68  O         24.6470   12.8970    2.6790 O.2   111  VAL111     -0.2867
     69  CB        26.8000   12.3130    5.0480 C.3   111  VAL111      0.0252
     70  CG1       26.9080   11.1380    4.0860 C.3   111  VAL111      0.0019
     71  CG2       28.1670   12.6400    5.6570 C.3   111  VAL111      0.0019
     72  N         24.1270   13.6090   -0.0510 N.3   114  PHE114     -0.1241
     73  CA        24.7620   12.7980   -1.0520 C.3   114  PHE114      0.1605
     74  C         23.8180   11.6760   -1.5260 C.2   114  PHE114      0.2264
     75  O         24.1930   10.5580   -1.8680 O.2   114  PHE114     -0.2867
     76  CB        26.0180   12.2330   -0.3780 C.3   114  PHE114      0.0534
     77  CG        27.2280   13.1370   -0.3550 C.ar  114  PHE114     -0.0203
     78  CD1       27.3410   14.1310    0.6160 C.ar  114  PHE114     -0.0042
     79  CD2       28.2790   13.0070   -1.2670 C.ar  114  PHE114     -0.0042
     80  CE1       28.4680   14.9520    0.6540 C.ar  114  PHE114     -0.0003
     81  CE2       29.4140   13.8230   -1.2620 C.ar  114  PHE114     -0.0003
     82  CZ        29.5090   14.7930   -0.2640 C.ar  114  PHE114     -0.0000
     83  N         24.3970    7.9300   -2.5850 N.3   118  LEU118     -0.1245
     84  CA        23.9610    6.9120   -1.6910 C.3   118  LEU118      0.1561
     85  C         23.2720    5.8280   -2.4370 C.2   118  LEU118      0.2260
     86  O         23.4730    4.6080   -2.2540 O.2   118  LEU118     -0.2867
     87  CB        22.9660    7.5130   -0.7310 C.3   118  LEU118      0.0270
     88  CG        23.6390    8.4160    0.3100 C.3   118  LEU118      0.0019
     89  CD1       22.5360    9.0770    1.1180 C.3   118  LEU118      0.0001
     90  CD2       24.6770    7.7200    1.2270 C.3   118  LEU118      0.0001
     91  N         25.6420    3.8570   -4.3360 N.3   121  LEU121     -0.1245
     92  CA        26.3840    2.9000   -3.5680 C.3   121  LEU121      0.1561
     93  C         25.4560    1.7280   -3.2000 C.2   121  LEU121      0.2260
     94  O         25.8550    0.5540   -3.2090 O.2   121  LEU121     -0.2867
     95  CB        26.7380    3.6350   -2.2820 C.3   121  LEU121      0.0270
     96  CG        27.9060    4.6010   -2.4760 C.3   121  LEU121      0.0019
     97  CD1       27.9680    5.5200   -1.2720 C.3   121  LEU121      0.0001
     98  CD2       29.2640    3.9220   -2.7190 C.3   121  LEU121      0.0001
     99  N         30.5490   10.9170   -6.2040 N.3   133  LEU133     -0.1245
    100  CA        31.1080   11.4390   -4.9610 C.3   133  LEU133      0.1561
    101  C         32.1310   12.5570   -5.1910 C.2   133  LEU133      0.2260
    102  O         32.3160   13.5080   -4.4270 O.2   133  LEU133     -0.2867
    103  CB        31.8730   10.2930   -4.1700 C.3   133  LEU133      0.0270
    104  CG        30.9070    9.2560   -3.5460 C.3   133  LEU133      0.0019
    105  CD1       31.6430    7.9520   -3.1750 C.3   133  LEU133      0.0001
    106  CD2       30.2960    9.8650   -2.3110 C.3   133  LEU133      0.0001
    107  N         35.4970    3.4160   -1.1420 N.3   153  PHE153     -0.1241
    108  CA        34.1730    2.9730   -1.5820 C.3   153  PHE153      0.1605
    109  C         34.2140    2.2570   -2.9370 C.2   153  PHE153      0.2264
    110  O         33.4540    1.3050   -3.1990 O.2   153  PHE153     -0.2867
    111  CB        33.3310    4.2000   -1.8050 C.3   153  PHE153      0.0534
    112  CG        32.7710    4.8410   -0.5610 C.ar  153  PHE153     -0.0203
    113  CD1       33.0380    6.1750   -0.2320 C.ar  153  PHE153     -0.0042
    114  CD2       31.8670    4.1190    0.2350 C.ar  153  PHE153     -0.0042
    115  CE1       32.3810    6.7420    0.8720 C.ar  153  PHE153     -0.0003
    116  CE2       31.2240    4.6600    1.3570 C.ar  153  PHE153     -0.0003
    117  CZ        31.4880    6.0010    1.6630 C.ar  153  PHE153     -0.0000
@<TRIPOS>BOND
     1    99   100    1
     2   101   100    1
     3   101   102    2
     4   100   103    1
     5    91    92    1
     6   103   104    1
     7    92    93    1
     8    92    95    1
     9   104   105    1
    10   104   106    1
    11    94    93    2
    12   110   109    2
    13   109   108    1
    14    98    96    1
    15    83    84    1
    16    96    95    1
    17    96    97    1
    18    85    86    2
    19    85    84    1
    20    75    74    2
    21   111   108    1
    22   111   112    1
    23    84    87    1
    24   108   107    1
    25    74    73    1
    26    79    81   ar
    27    79    77   ar
    28    81    82   ar
    29    73    76    1
    30    73    72    1
    31    87    88    1
    32   112   113   ar
    33   112   114   ar
    34    76    77    1
    35    77    78   ar
    36    82    80   ar
    37   113   115   ar
    38   114   116   ar
    39    88    89    1
    40    88    90    1
    41    78    80   ar
    42    43    41    1
    43   115   117   ar
    44    22    21    1
    45   116   117   ar
    46    23    21    1
    47    57    55   am
    48    21    18    1
    49    56    55    2
    50    41    40    1
    51    41    42    1
    52    55    54    1
    53    37    40    1
    54    37    36    1
    55    37    38    1
    56    68    67    2
    57    18    19    1
    58    18    17    1
    59    20    19    2
    60    38    39    2
    61    54    53    2
    62    19    24   am
    63    67    66    1
    64    70    69    1
    65    66    65    1
    66    66    69    1
    67    24    25    1
    68    53    50    1
    69    69    71    1
    70    44    45    1
    71    45    48    1
    72    45    46    1
    73    25    26    1
    74    25    28    1
    75    27    26    2
    76    16    14    1
    77    12    11    2
    78     9    10    1
    79    50    49    1
    80    50    51    1
    81    10    11    1
    82    10    13    1
    83    46    47    2
    84    28    29    1
    85    14    13    1
    86    14    15    1
    87    51    52    2
    88    51    58   am
    89    30    29   ar
    90    30    32   ar
    91    29    31   ar
    92    58    59    1
    93    64    62    1
    94    32    34   ar
    95    31    33   ar
    96    59    62    1
    97    59    60    1
    98    62    63    1
    99    34    33   ar
   100    34    35    1
   101     8     6    1
   102     7     5    1
   103     6     5    1
   104    60    61    2
   105     4     3    2
   106     5     2    1
   107     2     3    1
   108     2     1    1
