@<TRIPOS>MOLECULE
tmp/1ovkA00.pdb
 123 114 0 0 0
SMALL
GASTEIGER

@<TRIPOS>ATOM
      1  N         24.6350    6.9990   12.1010 N.3    78  ILE78      -0.1245
      2  CA        24.3310    6.3030   10.8680 C.3    78  ILE78       0.1561
      3  C         23.1630    5.3840   11.1140 C.2    78  ILE78       0.2260
      4  O         22.1320    5.4190   10.4190 O.2    78  ILE78      -0.2867
      5  CB        25.5460    5.4370   10.4290 C.3    78  ILE78       0.0252
      6  CG1       26.5350    6.3630    9.6860 C.3    78  ILE78       0.0019
      7  CG2       25.0540    4.3690    9.4270 C.3    78  ILE78       0.0019
      8  CD1       27.9820    5.8320    9.4750 C.3    78  ILE78       0.0001
      9  N         20.3810    6.8060    5.9370 N.3    84  LEU84      -0.1245
     10  CA        21.6550    6.1510    5.9450 C.3    84  LEU84       0.1561
     11  C         21.6970    4.6580    6.2360 C.2    84  LEU84       0.2260
     12  O         22.4330    3.8830    5.6230 O.2    84  LEU84      -0.2867
     13  CB        22.5200    6.9030    6.9390 C.3    84  LEU84       0.0270
     14  CG        22.6590    8.3800    6.6000 C.3    84  LEU84       0.0019
     15  CD1       23.3970    9.0000    7.7850 C.3    84  LEU84       0.0001
     16  CD2       23.4780    8.5860    5.3230 C.3    84  LEU84       0.0001
     17  N         21.6880    2.0260    3.6420 N.3    87  VAL87      -0.1231
     18  CA        22.7820    1.9240    2.7310 C.3    87  VAL87       0.1692
     19  C         23.9010    1.2090    3.4200 C.2    87  VAL87       0.2592
     20  O         24.5770    0.3580    2.8890 O.2    87  VAL87      -0.2718
     21  CB        23.2540    3.3040    2.2260 C.3    87  VAL87       0.0266
     22  CG1       24.3370    3.1010    1.1400 C.3    87  VAL87       0.0020
     23  CG2       22.0210    4.0350    1.6610 C.3    87  VAL87       0.0020
     24  N         24.1190    1.6720    4.6100 N.am   88  TYR88      -0.1976
     25  CA        25.2230    1.1760    5.3920 C.3    88  TYR88       0.1639
     26  C         25.1790   -0.3380    5.5690 C.2    88  TYR88       0.2290
     27  O         26.1820   -1.0690    5.4630 O.2    88  TYR88      -0.2864
     28  CB        25.1290    1.9600    6.7210 C.3    88  TYR88       0.0560
     29  CG        26.1690    1.4750    7.6730 C.ar   88  TYR88      -0.0198
     30  CD1       27.3800    2.1610    7.7310 C.ar   88  TYR88      -0.0009
     31  CD2       25.9120    0.3980    8.5240 C.ar   88  TYR88      -0.0009
     32  CE1       28.3410    1.7590    8.6490 C.ar   88  TYR88       0.0417
     33  CE2       26.8830   -0.0590    9.4060 C.ar   88  TYR88       0.0417
     34  CZ        28.0800    0.6570    9.4610 C.ar   88  TYR88       0.1957
     35  OH        29.0640    0.2870   10.2990 O.3    88  TYR88      -0.2866
     36  N         26.3600   -2.5590    2.7110 N.3    91  LEU91      -0.1245
     37  CA        27.8470   -2.6810    2.4030 C.3    91  LEU91       0.1561
     38  C         28.6410   -3.7840    3.0960 C.2    91  LEU91       0.2260
     39  O         28.2270   -4.3340    4.1230 O.2    91  LEU91      -0.2867
     40  CB        28.6250   -1.3770    2.6670 C.3    91  LEU91       0.0270
     41  CG        27.8940   -0.1280    2.1260 C.3    91  LEU91       0.0019
     42  CD1       28.3190    1.1620    2.8210 C.3    91  LEU91       0.0001
     43  CD2       28.1920    0.0920    0.6570 C.3    91  LEU91       0.0001
     44  N         32.1260    4.6470    5.0160 N.3    99  ALA99      -0.1245
     45  CA        31.0070    5.4960    5.3670 C.3    99  ALA99       0.1562
     46  C         31.2070    6.1750    6.7090 C.2    99  ALA99       0.2260
     47  O         30.8910    7.3180    6.9130 O.2    99  ALA99      -0.2867
     48  CB        29.7180    4.7010    5.4360 C.3    99  ALA99       0.0290
     49  N         33.3880    9.3150    6.3530 N.3   102  GLN102     -0.1231
     50  CA        32.7020   10.5650    5.9380 C.3   102  GLN102      0.1698
     51  C         31.7800   11.1420    7.0100 C.2   102  GLN102      0.2592
     52  O         31.6050   12.3470    7.1480 O.2   102  GLN102     -0.2718
     53  CB        31.7290   10.3380    4.7710 C.3   102  GLN102      0.0381
     54  CG        32.1410   10.8270    3.3790 C.3   102  GLN102      0.0905
     55  CD        31.0040   10.6150    2.3920 C.2   102  GLN102      0.2608
     56  OE1       30.4180    9.5310    2.2900 O.2   102  GLN102     -0.2717
     57  NE2       30.6030   11.6560    1.7300 N.am  102  GLN102     -0.0878
     58  N         31.0760   10.2640    7.7290 N.am  103  VAL103     -0.1980
     59  CA        30.1680   10.8210    8.7050 C.3   103  VAL103      0.1595
     60  C         30.9430   11.4440    9.8520 C.2   103  VAL103      0.2287
     61  O         30.5120   12.3950   10.4920 O.2   103  VAL103     -0.2864
     62  CB        29.1320    9.8140    9.2010 C.3   103  VAL103      0.0276
     63  CG1       28.2310   10.4920   10.2310 C.3   103  VAL103      0.0022
     64  CG2       28.2770    9.2880    8.0540 C.3   103  VAL103      0.0022
     65  N         26.1690   13.9910    4.9330 N.3   111  VAL111     -0.1245
     66  CA        26.0850   12.7360    4.2210 C.3   111  VAL111      0.1561
     67  C         24.6820   12.4360    3.7630 C.2   111  VAL111      0.2260
     68  O         24.4510   11.8900    2.6570 O.2   111  VAL111     -0.2867
     69  CB        26.6670   11.5720    4.9930 C.3   111  VAL111      0.0252
     70  CG1       26.7940   10.3900    4.0270 C.3   111  VAL111      0.0019
     71  CG2       28.0490   12.0230    5.4710 C.3   111  VAL111      0.0019
     72  N         23.7940   13.3620    0.0920 N.3   114  PHE114     -0.1241
     73  CA        24.4770   12.7360   -1.0140 C.3   114  PHE114      0.1605
     74  C         23.5970   11.6280   -1.6090 C.2   114  PHE114      0.2264
     75  O         23.9720   10.5170   -1.9470 O.2   114  PHE114     -0.2867
     76  CB        25.8060   12.2170   -0.4990 C.3   114  PHE114      0.0534
     77  CG        26.9510   13.1890   -0.4550 C.ar  114  PHE114     -0.0203
     78  CD1       26.9520   14.3000    0.3830 C.ar  114  PHE114     -0.0042
     79  CD2       28.0840   12.9770   -1.2410 C.ar  114  PHE114     -0.0042
     80  CE1       28.0760   15.1220    0.4340 C.ar  114  PHE114     -0.0003
     81  CE2       29.2040   13.8070   -1.2440 C.ar  114  PHE114     -0.0003
     82  CZ        29.1930   14.8910   -0.3720 C.ar  114  PHE114     -0.0000
     83  N         24.5370    9.5060   -4.6530 N.3   117  SER117     -0.1202
     84  CA        25.6450    8.5860   -4.3720 C.3   117  SER117      0.2020
     85  C         25.1540    7.4720   -3.4890 C.2   117  SER117      0.2618
     86  O         25.5120    6.3110   -3.6160 O.2   117  SER117     -0.2717
     87  CB        26.6650    9.3140   -3.5360 C.3   117  SER117      0.2103
     88  OG        27.0920   10.4740   -4.1860 O.3   117  SER117     -0.2182
     89  N         24.2690    7.8870   -2.5990 N.am  118  LEU118     -0.1979
     90  CA        23.7220    6.9580   -1.6720 C.3   118  LEU118      0.1596
     91  C         23.0580    5.8840   -2.4390 C.2   118  LEU118      0.2287
     92  O         23.1420    4.6610   -2.2150 O.2   118  LEU118     -0.2864
     93  CB        22.6910    7.6390   -0.7710 C.3   118  LEU118      0.0297
     94  CG        23.2870    8.3310    0.4640 C.3   118  LEU118      0.0022
     95  CD1       22.1300    9.0600    1.1030 C.3   118  LEU118      0.0001
     96  CD2       23.9740    7.4000    1.5100 C.3   118  LEU118      0.0001
     97  N         25.5760    3.7460   -4.2880 N.3   121  LEU121     -0.1245
     98  CA        26.2480    2.8020   -3.4020 C.3   121  LEU121      0.1561
     99  C         25.2760    1.6600   -3.0660 C.2   121  LEU121      0.2260
    100  O         25.5830    0.4740   -2.9400 O.2   121  LEU121     -0.2867
    101  CB        26.6630    3.5230   -2.0910 C.3   121  LEU121      0.0270
    102  CG        27.8750    4.4540   -2.3480 C.3   121  LEU121      0.0019
    103  CD1       28.2840    5.2590   -1.1250 C.3   121  LEU121      0.0001
    104  CD2       29.0830    3.5960   -2.6170 C.3   121  LEU121      0.0001
    105  N         30.5290   11.0230   -6.1310 N.3   133  LEU133     -0.1245
    106  CA        31.0420   11.5560   -4.8770 C.3   133  LEU133      0.1561
    107  C         32.0080   12.7530   -5.0900 C.2   133  LEU133      0.2260
    108  O         31.9650   13.7470   -4.4090 O.2   133  LEU133     -0.2867
    109  CB        31.7030   10.4070   -4.0220 C.3   133  LEU133      0.0270
    110  CG        30.7910    9.3520   -3.3590 C.3   133  LEU133      0.0019
    111  CD1       31.5730    8.1080   -2.8800 C.3   133  LEU133      0.0001
    112  CD2       30.1510   10.0240   -2.1550 C.3   133  LEU133      0.0001
    113  N         35.5080    3.3970   -1.2280 N.3   153  PHE153     -0.1241
    114  CA        34.1600    3.0040   -1.6270 C.3   153  PHE153      0.1605
    115  C         34.1830    2.2380   -2.9160 C.2   153  PHE153      0.2264
    116  O         33.4070    1.2960   -3.1360 O.2   153  PHE153     -0.2867
    117  CB        33.3250    4.2740   -1.9120 C.3   153  PHE153      0.0534
    118  CG        32.7020    4.8870   -0.6900 C.ar  153  PHE153     -0.0203
    119  CD1       33.0010    6.2060   -0.3290 C.ar  153  PHE153     -0.0042
    120  CD2       31.8960    4.1010    0.1480 C.ar  153  PHE153     -0.0042
    121  CE1       32.4440    6.7490    0.8350 C.ar  153  PHE153     -0.0003
    122  CE2       31.3120    4.6410    1.3010 C.ar  153  PHE153     -0.0003
    123  CZ        31.5900    5.9720    1.6270 C.ar  153  PHE153     -0.0000
@<TRIPOS>BOND
     1   105   106    1
     2   107   106    1
     3   107   108    2
     4   106   109    1
     5    83    84    1
     6    84    87    1
     7    84    85    1
     8    97    98    1
     9    88    87    1
    10   109   110    1
    11    86    85    2
    12    85    89   am
    13    98    99    1
    14    98   101    1
    15   110   111    1
    16   110   112    1
    17   116   115    2
    18    99   100    2
    19   115   114    1
    20   104   102    1
    21    89    90    1
    22    91    92    2
    23    91    90    1
    24   102   101    1
    25   102   103    1
    26    75    74    2
    27   117   114    1
    28   117   118    1
    29    90    93    1
    30   114   113    1
    31    74    73    1
    32    81    79   ar
    33    81    82   ar
    34    79    77   ar
    35    73    76    1
    36    73    72    1
    37    93    94    1
    38   118   119   ar
    39   118   120   ar
    40    76    77    1
    41    77    78   ar
    42    82    80   ar
    43   119   121   ar
    44   120   122   ar
    45    78    80   ar
    46    94    95    1
    47    94    96    1
    48    43    41    1
    49   121   123   ar
    50    22    21    1
    51   122   123   ar
    52    23    21    1
    53    57    55   am
    54    41    40    1
    55    41    42    1
    56    21    18    1
    57    56    55    2
    58    55    54    1
    59    37    40    1
    60    37    36    1
    61    37    38    1
    62    68    67    2
    63    18    19    1
    64    18    17    1
    65    20    19    2
    66    38    39    2
    67    54    53    1
    68    19    24   am
    69    67    66    1
    70    70    69    1
    71    66    65    1
    72    66    69    1
    73    24    25    1
    74    53    50    1
    75    69    71    1
    76    44    45    1
    77    16    14    1
    78    45    48    1
    79    45    46    1
    80    25    26    1
    81    25    28    1
    82    27    26    2
    83    12    11    2
    84     9    10    1
    85    50    49    1
    86    50    51    1
    87    10    11    1
    88    10    13    1
    89    14    13    1
    90    14    15    1
    91    46    47    2
    92    28    29    1
    93    51    52    2
    94    51    58   am
    95    29    30   ar
    96    29    31   ar
    97    58    59    1
    98    30    32   ar
    99    64    62    1
   100    31    33   ar
   101    32    34   ar
   102    59    62    1
   103    59    60    1
   104    62    63    1
   105    33    34   ar
   106     7     5    1
   107    34    35    1
   108     8     6    1
   109     6     5    1
   110    60    61    2
   111     4     3    2
   112     5     2    1
   113     2     3    1
   114     2     1    1
