@<TRIPOS>MOLECULE
tmp/1ovmC00.pdb
 148 141 0 0 0
SMALL
GASTEIGER

@<TRIPOS>ATOM
      1  N         32.6790   51.9740    3.7170 N.3    55  TYR55      -0.1241
      2  CA        32.3970   53.3970    3.9380 C.3    55  TYR55       0.1605
      3  C         30.9240   53.6640    3.6480 C.2    55  TYR55       0.2264
      4  O         30.2630   54.3930    4.3760 O.2    55  TYR55      -0.2867
      5  CB        33.2190   54.3030    3.0180 C.3    55  TYR55       0.0534
      6  CG        34.6930   54.4690    3.3520 C.ar   55  TYR55      -0.0201
      7  CD1       35.1690   54.3550    4.6650 C.ar   55  TYR55      -0.0009
      8  CD2       35.6100   54.7800    2.3420 C.ar   55  TYR55      -0.0009
      9  CE1       36.5220   54.5480    4.9540 C.ar   55  TYR55       0.0417
     10  CE2       36.9490   54.9770    2.6180 C.ar   55  TYR55       0.0417
     11  CZ        37.4070   54.8640    3.9180 C.ar   55  TYR55       0.1957
     12  OH        38.7450   55.0970    4.1610 O.3    55  TYR55      -0.2866
     13  N         39.8320   49.2570    7.5820 N.3    82  ASN82      -0.1240
     14  CA        39.8030   50.6790    7.8940 C.3    82  ASN82       0.1653
     15  C         38.3800   51.2310    8.0300 C.2    82  ASN82       0.2266
     16  O         38.1350   52.1520    8.8060 O.2    82  ASN82      -0.2867
     17  CB        40.5610   51.4540    6.8230 C.3    82  ASN82       0.1155
     18  CG        40.7160   52.9060    7.1700 C.2    82  ASN82       0.2627
     19  OD1       40.6580   53.7800    6.2980 O.2    82  ASN82      -0.2716
     20  ND2       40.9260   53.1820    8.4530 N.am   82  ASN82      -0.0877
     21  N         37.8860   65.1700    5.5690 N.3   367  GLN367     -0.1231
     22  CA        38.9570   65.7950    6.3420 C.3   367  GLN367      0.1698
     23  C         39.7080   66.8330    5.5150 C.2   367  GLN367      0.2593
     24  O         39.9660   66.6260    4.3280 O.2   367  GLN367     -0.2718
     25  CB        39.9270   64.7160    6.8360 C.3   367  GLN367      0.0381
     26  CG        40.1460   64.7450    8.3410 C.3   367  GLN367      0.0905
     27  CD        38.8390   64.6770    9.1140 C.2   367  GLN367      0.2608
     28  OE1       38.7500   65.1330   10.2550 O.2   367  GLN367     -0.2717
     29  NE2       37.8180   64.0980    8.4930 N.am  367  GLN367     -0.0878
     30  N         40.0820   67.9410    6.1440 N.am  368  GLY368     -0.1942
     31  CA        40.7860   68.9840    5.4200 C.3   368  GLY368      0.2014
     32  C         39.9650   70.2540    5.4060 C.2   368  GLY368      0.2640
     33  O         39.1300   70.4510    6.2910 O.2   368  GLY368     -0.2714
     34  N         40.1820   71.1080    4.4060 N.am  369  THR369     -0.1936
     35  CA        39.4340   72.3660    4.3090 C.3   369  THR369      0.2028
     36  C         37.9180   72.1520    4.2550 C.2   369  THR369      0.2642
     37  O         37.1550   72.9840    4.7530 O.2   369  THR369     -0.2714
     38  CB        39.8580   73.2050    3.0750 C.3   369  THR369      0.1808
     39  OG1       39.7900   72.4010    1.8900 O.3   369  THR369     -0.2208
     40  CG2       41.2680   73.7270    3.2460 C.3   369  THR369      0.0379
     41  N         37.4820   71.0400    3.6660 N.am  370  SER370     -0.1949
     42  CA        36.0550   70.7420    3.5730 C.3   370  SER370      0.1924
     43  C         35.3900   70.7120    4.9430 C.2   370  SER370      0.2314
     44  O         34.4750   71.4870    5.2210 O.2   370  SER370     -0.2863
     45  CB        35.8230   69.3880    2.8960 C.3   370  SER370      0.2116
     46  OG        36.2060   69.4040    1.5360 O.3   370  SER370     -0.2180
     47  N         38.8540   60.1100   11.1950 N.3   392  GLY392     -0.1210
     48  CA        39.4650   60.9670   10.1960 C.3   392  GLY392      0.1956
     49  C         40.1240   60.3430    8.9790 C.2   392  GLY392      0.2613
     50  O         41.2290   60.7410    8.5980 O.2   392  GLY392     -0.2717
     51  N         39.4670   59.3770    8.3490 N.am  393  SER393     -0.1938
     52  CA        40.0390   58.7540    7.1640 C.3   393  SER393      0.2055
     53  C         39.5580   59.4750    5.8940 C.2   393  SER393      0.2642
     54  O         38.3580   59.5090    5.6080 O.2   393  SER393     -0.2714
     55  CB        39.6490   57.2830    7.1140 C.3   393  SER393      0.2130
     56  OG        40.1940   56.6670    5.9710 O.3   393  SER393     -0.2179
     57  N         40.4880   60.0620    5.1400 N.am  394  ILE394     -0.1977
     58  CA        40.1110   60.7630    3.9150 C.3   394  ILE394      0.1596
     59  C         39.6850   59.7860    2.8290 C.2   394  ILE394      0.2287
     60  O         40.2820   58.7240    2.6640 O.2   394  ILE394     -0.2864
     61  CB        41.2540   61.6260    3.3500 C.3   394  ILE394      0.0276
     62  CG1       42.3840   60.7330    2.8550 C.3   394  ILE394      0.0022
     63  CG2       41.7610   62.5790    4.4170 C.3   394  ILE394      0.0022
     64  CD1       43.4280   61.4700    2.0560 C.3   394  ILE394      0.0001
     65  N         37.6920   67.1750   -0.6830 N.3   418  GLY418     -0.1210
     66  CA        38.8940   67.7680   -1.2390 C.3   418  GLY418      0.1956
     67  C         39.3470   66.9480   -2.4330 C.2   418  GLY418      0.2612
     68  O         38.8760   65.8340   -2.6320 O.2   418  GLY418     -0.2717
     69  N         40.2600   67.4880   -3.2300 N.am  419  ASP419     -0.1959
     70  CA        40.7390   66.7690   -4.4020 C.3   419  ASP419      0.1840
     71  C         41.6260   65.5960   -3.9910 C.2   419  ASP419      0.2623
     72  O         41.6360   64.5470   -4.6430 O.2   419  ASP419     -0.2715
     73  CB        41.4870   67.7230   -5.3570 C.3   419  ASP419      0.1450
     74  CG        42.5840   68.5310   -4.6650 C.2   419  ASP419      0.3671
     75  OD1       42.8980   68.2600   -3.4900 O.co2 419  ASP419     -0.2456
     76  OD2       43.1430   69.4430   -5.3080 O.co2 419  ASP419     -0.2456
     77  N         42.3590   65.7690   -2.8960 N.am  420  GLY420     -0.1940
     78  CA        43.2160   64.6980   -2.4340 C.3   420  GLY420      0.2014
     79  C         42.3650   63.5330   -1.9680 C.2   420  GLY420      0.2638
     80  O         42.5760   62.3830   -2.3630 O.2   420  GLY420     -0.2714
     81  N         41.3790   63.8450   -1.1320 N.am  421  ALA421     -0.1977
     82  CA        40.4740   62.8460   -0.5820 C.3   421  ALA421      0.1597
     83  C         39.7130   62.0380   -1.6320 C.2   421  ALA421      0.2287
     84  O         39.6900   60.8080   -1.5780 O.2   421  ALA421     -0.2864
     85  CB        39.4890   63.5240    0.3670 C.3   421  ALA421      0.0319
     86  N         41.1470   58.7060   -3.3480 N.3   424  LEU424     -0.1245
     87  CA        41.2030   57.4120   -2.6690 C.3   424  LEU424      0.1561
     88  C         39.9960   56.4930   -2.8900 C.2   424  LEU424      0.2260
     89  O         40.1210   55.2660   -2.8370 O.2   424  LEU424     -0.2867
     90  CB        41.4200   57.6150   -1.1650 C.3   424  LEU424      0.0270
     91  CG        42.7470   58.2490   -0.7400 C.3   424  LEU424      0.0019
     92  CD1       42.6750   59.7530   -0.9920 C.3   424  LEU424      0.0001
     93  CD2       43.0260   57.9780    0.7270 C.3   424  LEU424      0.0001
     94  N         36.9240   70.3810   -3.9540 N.3   444  LEU444     -0.1245
     95  CA        37.7250   71.5630   -3.6910 C.3   444  LEU444      0.1561
     96  C         39.1150   71.3630   -4.2720 C.2   444  LEU444      0.2260
     97  O         39.9860   70.7800   -3.6240 O.2   444  LEU444     -0.2867
     98  CB        37.8300   71.8240   -2.1920 C.3   444  LEU444      0.0270
     99  CG        36.5290   71.8770   -1.3820 C.3   444  LEU444      0.0019
    100  CD1       36.7940   72.6420   -0.0910 C.3   444  LEU444      0.0001
    101  CD2       35.4150   72.5680   -2.1690 C.3   444  LEU444      0.0001
    102  N         42.5070   72.5330   -4.9410 N.3   446  ASN446     -0.1240
    103  CA        43.5420   73.4740   -4.5290 C.3   446  ASN446      0.1653
    104  C         44.9060   72.8250   -4.7970 C.2   446  ASN446      0.2266
    105  O         45.9150   73.1350   -4.1600 O.2   446  ASN446     -0.2867
    106  CB        43.3840   73.8320   -3.0520 C.3   446  ASN446      0.1155
    107  CG        43.1180   72.6250   -2.1910 C.2   446  ASN446      0.2627
    108  OD1       43.6390   71.5410   -2.4560 O.2   446  ASN446     -0.2716
    109  ND2       42.3230   72.8030   -1.1380 N.am  446  ASN446     -0.0877
    110  N         46.2200   69.7060   -4.2860 N.3   448  GLY448     -0.1210
    111  CA        46.9090   68.9860   -3.2340 C.3   448  GLY448      0.1956
    112  C         46.2690   68.9770   -1.8600 C.2   448  GLY448      0.2612
    113  O         45.0840   69.3060   -1.6660 O.2   448  GLY448     -0.2717
    114  N         47.0940   68.5820   -0.8970 N.am  449  TYR449     -0.1962
    115  CA        46.7050   68.4820    0.4980 C.3   449  TYR449      0.1771
    116  C         47.0440   69.7930    1.2090 C.2   449  TYR449      0.2620
    117  O         48.0790   69.8840    1.8740 O.2   449  TYR449     -0.2715
    118  CB        47.4940   67.3540    1.1690 C.3   449  TYR449      0.0574
    119  CG        47.5810   66.0350    0.4170 C.ar  449  TYR449     -0.0198
    120  CD1       46.4530   65.4600   -0.1770 C.ar  449  TYR449     -0.0009
    121  CD2       48.7770   65.3130    0.3910 C.ar  449  TYR449     -0.0009
    122  CE1       46.5140   64.1960   -0.7720 C.ar  449  TYR449      0.0417
    123  CE2       48.8500   64.0490   -0.2020 C.ar  449  TYR449      0.0417
    124  CZ        47.7170   63.4960   -0.7820 C.ar  449  TYR449      0.1957
    125  OH        47.7840   62.2610   -1.3850 O.3   449  TYR449     -0.2866
    126  N         46.2030   70.8130    1.0950 N.am  450  THR450     -0.1937
    127  CA        46.5470   72.0610    1.7570 C.3   450  THR450      0.2028
    128  C         46.5720   71.9610    3.2910 C.2   450  THR450      0.2642
    129  O         47.3550   72.6720    3.9310 O.2   450  THR450     -0.2714
    130  CB        45.6440   73.2580    1.2910 C.3   450  THR450      0.1808
    131  OG1       44.4370   73.3050    2.0580 O.3   450  THR450     -0.2208
    132  CG2       45.3120   73.1250   -0.1840 C.3   450  THR450      0.0379
    133  N         45.7460   71.0960    3.8930 N.am  451  VAL451     -0.1963
    134  CA        45.7890   70.9470    5.3580 C.3   451  VAL451      0.1727
    135  C         47.1690   70.4470    5.7640 C.2   451  VAL451      0.2616
    136  O         47.7440   70.9070    6.7510 O.2   451  VAL451     -0.2715
    137  CB        44.7640   69.9180    5.9230 C.3   451  VAL451      0.0290
    138  CG1       43.4820   70.6230    6.3050 C.3   451  VAL451      0.0023
    139  CG2       44.4980   68.8200    4.9140 C.3   451  VAL451      0.0023
    140  N         47.6980   69.4960    5.0030 N.am  452  GLU452     -0.1977
    141  CA        49.0130   68.9600    5.3150 C.3   452  GLU452      0.1602
    142  C         50.0580   70.0550    5.1430 C.2   452  GLU452      0.2287
    143  O         50.9840   70.1880    5.9520 O.2   452  GLU452     -0.2864
    144  CB        49.3530   67.7740    4.4090 C.3   452  GLU452      0.0415
    145  CG        48.4280   66.5730    4.5510 C.3   452  GLU452      0.1163
    146  CD        48.3470   66.0510    5.9740 C.2   452  GLU452      0.3649
    147  OE1       47.6980   66.7000    6.8190 O.co2 452  GLU452     -0.2457
    148  OE2       48.9400   64.9880    6.2490 O.co2 452  GLU452     -0.2457
@<TRIPOS>BOND
     1    73    74    1
     2    73    70    1
     3    76    74   ar
     4   102   103    1
     5   104   103    1
     6   104   105    2
     7    74    75   ar
     8    72    71    2
     9   103   106    1
    10    70    71    1
    11    70    69    1
    12   110   111    1
    13    96    95    1
    14    96    97    2
    15    71    77   am
    16    94    95    1
    17    95    98    1
    18    86    87    1
    19   111   112    1
    20    69    67   am
    21   106   107    1
    22    77    78    1
    23    88    89    2
    24    88    87    1
    25    87    90    1
    26    68    67    2
    27   108   107    2
    28    78    79    1
    29    67    66    1
    30    80    79    2
    31    98    99    1
    32   107   109   am
    33   101    99    1
    34    79    81   am
    35   112   113    2
    36   112   114   am
    37    83    84    2
    38    83    82    1
    39   125   124    1
    40    99   100    1
    41    66    65    1
    42    90    91    1
    43    81    82    1
    44    92    91    1
    45   114   115    1
    46   124   122   ar
    47   124   123   ar
    48   122   120   ar
    49    91    93    1
    50    82    85    1
    51   123   121   ar
    52   132   130    1
    53   120   119   ar
    54   121   119   ar
    55   119   118    1
    56   115   118    1
    57   115   116    1
    58   126   116   am
    59   126   127    1
    60   116   117    2
    61   130   127    1
    62   130   131    1
    63    46    45    1
    64   127   128    1
    65    39    38    1
    66    64    62    1
    67     8    10   ar
    68     8     6   ar
    69    10    11   ar
    70    60    59    2
    71    59    58    1
    72    62    61    1
    73    45    42    1
    74     5     6    1
    75     5     2    1
    76    38    40    1
    77    38    35    1
    78   128   133   am
    79   128   129    2
    80    61    58    1
    81    61    63    1
    82     6     7   ar
    83    42    41    1
    84    42    43    1
    85     3     2    1
    86     3     4    2
    87    41    36   am
    88     1     2    1
    89   133   134    1
    90    58    57    1
    91    11    12    1
    92    11     9   ar
    93    36    35    1
    94    36    37    2
    95    35    34    1
    96    24    23    2
    97    34    32   am
    98   144   145    1
    99   144   141    1
   100   145   146    1
   101     7     9   ar
   102   139   137    1
   103    43    44    2
   104   140   141    1
   105   140   135   am
   106    57    53   am
   107   142   141    1
   108   142   143    2
   109   134   135    1
   110   134   137    1
   111    32    31    1
   112    32    33    2
   113    31    30    1
   114    23    30   am
   115    23    22    1
   116    21    22    1
   117    54    53    2
   118   135   136    2
   119    53    52    1
   120   137   138    1
   121    56    55    1
   122   146   148   ar
   123   146   147   ar
   124    19    18    2
   125    22    25    1
   126    17    18    1
   127    17    14    1
   128    25    26    1
   129    55    52    1
   130    52    51    1
   131    18    20   am
   132    13    14    1
   133    14    15    1
   134    15    16    2
   135    26    27    1
   136    51    49   am
   137    29    27   am
   138    50    49    2
   139    49    48    1
   140    27    28    2
   141    48    47    1
