@<TRIPOS>MOLECULE
tmp/1ovwD01.pdb
 215 209 0 0 0
SMALL
GASTEIGER

@<TRIPOS>ATOM
      1  N        -22.4530   70.7240  142.8700 N.3    50  TRP50      -0.1241
      2  CA       -21.4270   70.5280  141.8510 C.3    50  TRP50       0.1605
      3  C        -21.2700   69.0370  141.5300 C.2    50  TRP50       0.2264
      4  O        -21.1840   68.2450  142.4470 O.2    50  TRP50      -0.2867
      5  CB       -20.1030   71.1010  142.3070 C.3    50  TRP50       0.0550
      6  CG       -18.9590   70.9340  141.3580 C.ar   50  TRP50       0.0003
      7  CD1      -18.4860   71.8460  140.4680 C.ar   50  TRP50       0.0946
      8  CD2      -18.1160   69.7890  141.2090 C.ar   50  TRP50       0.0152
      9  NE1      -17.4080   71.3610  139.7760 N.ar   50  TRP50      -0.2442
     10  CE2      -17.1610   70.0950  140.2150 C.ar   50  TRP50       0.0810
     11  CE3      -18.0620   68.5350  141.8410 C.ar   50  TRP50       0.0012
     12  CZ2      -16.1720   69.1780  139.8380 C.ar   50  TRP50       0.0191
     13  CZ3      -17.1010   67.6200  141.4450 C.ar   50  TRP50       0.0001
     14  CH2      -16.1650   67.9520  140.4480 C.ar   50  TRP50       0.0015
     15  N        -13.2780   80.1050  149.0620 N.3   103  SER103     -0.1217
     16  CA       -12.5510   79.8250  147.8510 C.3   103  SER103      0.1889
     17  C        -13.0570   80.4270  146.5620 C.2   103  SER103      0.2288
     18  O        -13.5270   79.7770  145.6100 O.2   103  SER103     -0.2866
     19  CB       -12.6030   78.2950  147.8260 C.3   103  SER103      0.2089
     20  OG       -11.9170   77.7780  146.7570 O.3   103  SER103     -0.2183
     21  N        -13.9770   82.2660  142.9550 N.3   105  ARG105     -0.1245
     22  CA       -13.6730   82.2450  141.5340 C.3   105  ARG105      0.1563
     23  C        -14.3230   83.4910  140.9500 C.2   105  ARG105      0.2260
     24  O        -15.5070   83.6910  141.1850 O.2   105  ARG105     -0.2867
     25  CB       -14.1310   80.9870  140.8070 C.3   105  ARG105      0.0307
     26  CG       -13.6460   80.9910  139.3730 C.3   105  ARG105      0.0489
     27  CD       -13.8640   79.6480  138.6860 C.3   105  ARG105      0.2205
     28  NE       -15.2400   79.2720  138.5340 N.pl3 105  ARG105     -0.0865
     29  CZ       -15.9030   78.1940  138.9080 C.cat 105  ARG105      0.5346
     30  NH1      -15.2620   77.1990  139.5300 N.pl3 105  ARG105      0.1354
     31  NH2      -17.2040   78.0870  138.6820 N.pl3 105  ARG105      0.1354
     32  N         -5.0130   80.5680  140.9250 N.3   142  ALA142     -0.1245
     33  CA        -5.0170   80.4300  139.4540 C.3   142  ALA142      0.1562
     34  C         -5.4100   81.6550  138.6600 C.2   142  ALA142      0.2260
     35  O         -6.4020   82.3240  138.8760 O.2   142  ALA142     -0.2867
     36  CB        -5.9540   79.2950  139.0920 C.3   142  ALA142      0.0290
     37  N         -6.3490   82.2080  134.7960 N.3   144  TYR144     -0.1241
     38  CA        -6.5900   81.4910  133.5600 C.3   144  TYR144      0.1605
     39  C         -7.7850   81.9900  132.7560 C.2   144  TYR144      0.2264
     40  O         -8.5050   82.9270  133.1130 O.2   144  TYR144     -0.2867
     41  CB        -6.8060   79.9990  133.8410 C.3   144  TYR144      0.0534
     42  CG        -8.0560   79.6630  134.6130 C.ar  144  TYR144     -0.0201
     43  CD1       -8.1910   80.0290  135.9640 C.ar  144  TYR144     -0.0009
     44  CD2       -9.0870   78.9580  133.9920 C.ar  144  TYR144     -0.0009
     45  CE1       -9.3320   79.6980  136.6690 C.ar  144  TYR144      0.0417
     46  CE2      -10.2250   78.6340  134.7050 C.ar  144  TYR144      0.0417
     47  CZ       -10.3460   78.9990  136.0450 C.ar  144  TYR144      0.1957
     48  OH       -11.5080   78.6500  136.7210 O.3   144  TYR144     -0.2866
     49  N        -20.0580   79.4540  133.2290 N.3   170  TYR170     -0.1241
     50  CA       -18.6970   78.9570  133.4000 C.3   170  TYR170      0.1605
     51  C        -18.5190   77.6480  132.6830 C.2   170  TYR170      0.2264
     52  O        -19.4010   76.8290  132.5560 O.2   170  TYR170     -0.2867
     53  CB       -18.3690   78.8110  134.9080 C.3   170  TYR170      0.0534
     54  CG       -16.9550   78.3210  135.0900 C.ar  170  TYR170     -0.0201
     55  CD1      -15.8740   79.1560  134.8430 C.ar  170  TYR170     -0.0009
     56  CD2      -16.7270   76.9880  135.4480 C.ar  170  TYR170     -0.0009
     57  CE1      -14.5840   78.6550  134.9940 C.ar  170  TYR170      0.0417
     58  CE2      -15.4460   76.4840  135.5750 C.ar  170  TYR170      0.0417
     59  CZ       -14.3880   77.3320  135.3650 C.ar  170  TYR170      0.1957
     60  OH       -13.1100   76.8870  135.4880 O.3   170  TYR170     -0.2866
     61  N        -14.9630   74.6630  131.5490 N.3   172  ASP172     -0.1225
     62  CA       -13.4920   74.5700  131.4040 C.3   172  ASP172      0.1805
     63  C        -13.1750   73.2280  130.7510 C.2   172  ASP172      0.2598
     64  O        -14.1080   72.4950  130.3790 O.2   172  ASP172     -0.2718
     65  CB       -12.6850   74.8170  132.6770 C.3   172  ASP172      0.1424
     66  CG       -13.1430   73.8890  133.7780 C.2   172  ASP172      0.3668
     67  OD1      -13.4680   72.7140  133.5370 O.co2 172  ASP172     -0.2456
     68  OD2      -13.1780   74.4100  134.9060 O.co2 172  ASP172     -0.2456
     69  N        -11.9110   72.8590  130.6290 N.am  173  ALA173     -0.1966
     70  CA       -11.5740   71.6420  129.8950 C.3   173  ALA173      0.1728
     71  C        -11.8510   70.3890  130.6960 C.2   173  ALA173      0.2616
     72  O        -11.6040   69.2830  130.1470 O.2   173  ALA173     -0.2715
     73  CB       -10.1420   71.6400  129.4020 C.3   173  ALA173      0.0334
     74  N        -12.3620   70.5460  131.9230 N.am  174  GLN174     -0.1977
     75  CA       -12.6720   69.3210  132.6670 C.3   174  GLN174      0.1601
     76  C        -14.0250   68.7390  132.2740 C.2   174  GLN174      0.2287
     77  O        -14.1970   67.5190  132.4190 O.2   174  GLN174     -0.2864
     78  CB       -12.5530   69.5590  134.1590 C.3   174  GLN174      0.0394
     79  CG       -11.1470   69.7760  134.6840 C.3   174  GLN174      0.0908
     80  CD       -10.1180   68.9240  133.9470 C.2   174  GLN174      0.2608
     81  OE1      -10.3100   67.7010  133.9400 O.2   174  GLN174     -0.2717
     82  NE2       -9.1230   69.5880  133.3590 N.am  174  GLN174     -0.0878
     83  N        -17.0360   69.0990  133.5640 N.3   176  TYR176     -0.1241
     84  CA       -17.7310   68.6680  134.7470 C.3   176  TYR176      0.1605
     85  C        -19.2470   68.8540  134.5970 C.2   176  TYR176      0.2264
     86  O        -19.7440   69.8640  134.0810 O.2   176  TYR176     -0.2867
     87  CB       -17.3100   69.4800  135.9870 C.3   176  TYR176      0.0534
     88  CG       -15.8900   69.4060  136.4840 C.ar  176  TYR176     -0.0201
     89  CD1      -15.2710   68.1880  136.7640 C.ar  176  TYR176     -0.0009
     90  CD2      -15.1280   70.5550  136.7010 C.ar  176  TYR176     -0.0009
     91  CE1      -13.9910   68.1090  137.2240 C.ar  176  TYR176      0.0417
     92  CE2      -13.8300   70.5080  137.1450 C.ar  176  TYR176      0.0417
     93  CZ       -13.2830   69.2780  137.4130 C.ar  176  TYR176      0.1957
     94  OH       -11.9790   69.1740  137.8700 O.3   176  TYR176     -0.2866
     95  N         -9.5190   75.9100  127.1370 N.3   196  GLU196     -0.1245
     96  CA        -9.0220   76.6070  128.3100 C.3   196  GLU196      0.1567
     97  C         -7.5410   76.8690  128.3290 C.2   196  GLU196      0.2260
     98  O         -6.7850   75.9680  128.0370 O.2   196  GLU196     -0.2867
     99  CB        -9.4280   75.7680  129.5510 C.3   196  GLU196      0.0388
    100  CG        -8.8550   76.3400  130.8230 C.3   196  GLU196      0.1160
    101  CD        -8.9620   75.4330  132.0210 C.2   196  GLU196      0.3649
    102  OE1       -9.5430   74.3460  131.9390 O.co2 196  GLU196     -0.2457
    103  OE2       -8.4650   75.8190  133.1030 O.co2 196  GLU196     -0.2457
    104  N         -4.5000   77.7000  130.7780 N.3   198  ASP198     -0.1239
    105  CA        -3.9970   77.9360  132.1280 C.3   198  ASP198      0.1674
    106  C         -2.6780   78.6940  132.1090 C.2   198  ASP198      0.2266
    107  O         -1.6440   78.0910  132.0140 O.2   198  ASP198     -0.2867
    108  CB        -3.8890   76.6180  132.8790 C.3   198  ASP198      0.1410
    109  CG        -5.2900   76.0920  133.1160 C.2   198  ASP198      0.3668
    110  OD1       -6.2210   76.8970  133.3580 O.co2 198  ASP198     -0.2456
    111  OD2       -5.5120   74.8810  133.0940 O.co2 198  ASP198     -0.2456
    112  N         -0.9520   78.5640  137.3310 N.3   201  GLU201     -0.1245
    113  CA        -1.5510   77.7160  138.3710 C.3   201  GLU201      0.1567
    114  C         -0.3810   77.4250  139.3420 C.2   201  GLU201      0.2260
    115  O          0.6070   76.7740  138.9960 O.2   201  GLU201     -0.2867
    116  CB        -2.2880   76.4350  137.9960 C.3   201  GLU201      0.0388
    117  CG        -3.6380   76.7120  137.3350 C.3   201  GLU201      0.1160
    118  CD        -4.3590   75.4170  137.1410 C.2   201  GLU201      0.3649
    119  OE1       -3.8120   74.6200  136.3650 O.co2 201  GLU201     -0.2457
    120  OE2       -5.4100   75.1180  137.7170 O.co2 201  GLU201     -0.2457
    121  N          2.8410   76.2090  137.3370 N.3   208  HIS208     -0.1241
    122  CA         2.4240   75.4270  136.1600 C.3   208  HIS208      0.1621
    123  C          1.7720   76.2900  135.0680 C.2   208  HIS208      0.2264
    124  O          1.0290   77.2380  135.2960 O.2   208  HIS208     -0.2867
    125  CB         1.4730   74.3560  136.6540 C.3   208  HIS208      0.0745
    126  CG         1.1690   73.2180  135.7550 C.ar  208  HIS208      0.0817
    127  ND1        2.0290   72.1630  135.5600 N.ar  208  HIS208     -0.2268
    128  CD2        0.0480   72.9160  135.0370 C.ar  208  HIS208      0.1154
    129  CE1        1.5050   71.2820  134.7260 C.ar  208  HIS208      0.1986
    130  NE2        0.3010   71.7200  134.3940 N.ar  208  HIS208     -0.2212
    131  N         -0.4140   75.7450  131.3300 N.3   210  ALA210     -0.1245
    132  CA        -1.0080   74.6710  130.5390 C.3   210  ALA210      0.1562
    133  C         -2.2550   74.9950  129.7170 C.2   210  ALA210      0.2260
    134  O         -3.3610   75.1020  130.2190 O.2   210  ALA210     -0.2867
    135  CB        -1.3370   73.4350  131.3880 C.3   210  ALA210      0.0290
    136  N         -5.2020   73.9060  127.2990 N.3   212  HIS212     -0.1241
    137  CA        -6.0660   72.7460  127.1480 C.3   212  HIS212      0.1621
    138  C         -7.0810   72.9480  126.0220 C.2   212  HIS212      0.2264
    139  O         -8.1640   73.5120  126.2050 O.2   212  HIS212     -0.2867
    140  CB        -6.8820   72.4230  128.3700 C.3   212  HIS212      0.0745
    141  CG        -6.2200   72.2940  129.6940 C.ar  212  HIS212      0.0817
    142  ND1       -6.1630   71.0890  130.3940 N.ar  212  HIS212     -0.2268
    143  CD2       -5.5950   73.2050  130.4750 C.ar  212  HIS212      0.1154
    144  CE1       -5.5590   71.2940  131.5330 C.ar  212  HIS212      0.1986
    145  NE2       -5.1960   72.5530  131.5930 N.ar  212  HIS212     -0.2212
    146  N         -8.1990   67.0000  129.0700 N.3   235  LYS235     -0.1231
    147  CA        -8.2490   67.1850  130.5290 C.3   235  LYS235      0.1693
    148  C         -6.8830   67.4990  131.0680 C.2   235  LYS235      0.2591
    149  O         -6.6730   68.5130  131.7030 O.2   235  LYS235     -0.2718
    150  CB        -8.8710   65.9810  131.1960 C.3   235  LYS235      0.0285
    151  CG       -10.1030   65.3680  130.5780 C.3   235  LYS235      0.0035
    152  CD       -10.9780   64.4890  131.4670 C.3   235  LYS235      0.0206
    153  CE       -12.4750   64.7020  131.3180 C.3   235  LYS235      0.1093
    154  NZ       -12.7990   65.9770  130.5480 N.3   235  LYS235     -0.1314
    155  N         -5.8510   66.7910  130.7000 N.am  236  ALA236     -0.1980
    156  CA        -4.4820   66.9530  131.1910 C.3   236  ALA236      0.1597
    157  C         -3.8020   68.2280  130.7730 C.2   236  ALA236      0.2287
    158  O         -3.1830   68.8830  131.5940 O.2   236  ALA236     -0.2864
    159  CB        -3.6190   65.7950  130.7180 C.3   236  ALA236      0.0319
    160  N         -8.9430   82.4470  140.5190 N.3   344  SER344     -0.1217
    161  CA        -9.4300   81.7820  141.7220 C.3   344  SER344      0.1889
    162  C         -8.3220   81.4370  142.7360 C.2   344  SER344      0.2288
    163  O         -7.1210   81.5200  142.4880 O.2   344  SER344     -0.2866
    164  CB       -10.2190   80.5150  141.3490 C.3   344  SER344      0.2089
    165  OG        -9.4660   79.4420  140.8350 O.3   344  SER344     -0.2183
    166  N         -7.8870   78.0400  145.4720 N.3   346  TRP346     -0.1227
    167  CA        -8.5790   76.8240  145.8850 C.3   346  TRP346      0.1737
    168  C         -7.5660   75.7850  146.3700 C.2   346  TRP346      0.2595
    169  O         -6.3390   75.8690  146.2350 O.2   346  TRP346     -0.2718
    170  CB        -9.4540   76.2980  144.7530 C.3   346  TRP346      0.0564
    171  CG        -8.7760   75.9120  143.4770 C.ar  346  TRP346      0.0003
    172  CD1       -8.2150   76.7760  142.5570 C.ar  346  TRP346      0.0946
    173  CD2       -8.5720   74.5960  142.9740 C.ar  346  TRP346      0.0152
    174  NE1       -7.6890   76.0690  141.5260 N.ar  346  TRP346     -0.2442
    175  CE2       -7.8740   74.7320  141.7480 C.ar  346  TRP346      0.0810
    176  CE3       -8.9170   73.3220  143.4160 C.ar  346  TRP346      0.0012
    177  CZ2       -7.5210   73.6360  140.9650 C.ar  346  TRP346      0.0191
    178  CZ3       -8.5580   72.2160  142.6490 C.ar  346  TRP346      0.0001
    179  CH2       -7.8740   72.3890  141.4380 C.ar  346  TRP346      0.0015
    180  N         -8.1860   74.7720  146.9780 N.am  347  TRP347     -0.1976
    181  CA        -7.4030   73.6360  147.4840 C.3   347  TRP347      0.1640
    182  C         -8.1450   72.3630  147.1000 C.2   347  TRP347      0.2290
    183  O         -9.1850   72.4910  146.4860 O.2   347  TRP347     -0.2864
    184  CB        -7.1590   73.8170  148.9610 C.3   347  TRP347      0.0576
    185  CG        -8.2630   73.6950  149.9440 C.ar  347  TRP347      0.0006
    186  CD1       -9.3760   72.9230  149.9200 C.ar  347  TRP347      0.0946
    187  CD2       -8.2920   74.3890  151.2060 C.ar  347  TRP347      0.0152
    188  NE1      -10.1130   73.0890  151.0460 N.ar  347  TRP347     -0.2442
    189  CE2       -9.4770   73.9850  151.8660 C.ar  347  TRP347      0.0810
    190  CE3       -7.4060   75.2810  151.8480 C.ar  347  TRP347      0.0012
    191  CZ2       -9.8030   74.4590  153.1220 C.ar  347  TRP347      0.0191
    192  CZ3       -7.7570   75.7740  153.0710 C.ar  347  TRP347      0.0001
    193  CH2       -8.9360   75.3530  153.6950 C.ar  347  TRP347      0.0015
    194  N         -6.7550   65.2310  146.0990 N.3   351  ASP351     -0.1239
    195  CA        -5.4340   64.7780  145.6520 C.3   351  ASP351      0.1674
    196  C         -4.3840   65.7310  146.1920 C.2   351  ASP351      0.2266
    197  O         -3.1890   65.6120  145.9810 O.2   351  ASP351     -0.2867
    198  CB        -5.3460   64.6430  144.1410 C.3   351  ASP351      0.1410
    199  CG        -5.5970   65.9070  143.3580 C.2   351  ASP351      0.3668
    200  OD1       -5.9270   66.9800  143.9060 O.co2 351  ASP351     -0.2456
    201  OD2       -5.4830   65.8910  142.1050 O.co2 351  ASP351     -0.2456
    202  N         -0.2830   67.1190  141.5070 N.3   355  TRP355     -0.1241
    203  CA         0.1330   67.2990  140.1450 C.3   355  TRP355      0.1605
    204  C          0.9200   68.5960  140.0200 C.2   355  TRP355      0.2264
    205  O          1.7190   68.7120  139.0960 O.2   355  TRP355     -0.2867
    206  CB        -1.0550   67.2970  139.1410 C.3   355  TRP355      0.0550
    207  CG        -2.0990   68.3280  139.4790 C.ar  355  TRP355      0.0003
    208  CD1       -3.2440   68.1340  140.2070 C.ar  355  TRP355      0.0946
    209  CD2       -2.0610   69.7140  139.1330 C.ar  355  TRP355      0.0152
    210  NE1       -3.9080   69.3360  140.3310 N.ar  355  TRP355     -0.2442
    211  CE2       -3.2140   70.3170  139.6900 C.ar  355  TRP355      0.0810
    212  CE3       -1.1810   70.5070  138.3950 C.ar  355  TRP355      0.0012
    213  CZ2       -3.4980   71.6690  139.5250 C.ar  355  TRP355      0.0191
    214  CZ3       -1.4610   71.8750  138.2560 C.ar  355  TRP355      0.0001
    215  CH2       -2.6020   72.4200  138.8170 C.ar  355  TRP355      0.0015
@<TRIPOS>BOND
     1   138   139    2
     2   138   137    1
     3    95    96    1
     4   137   136    1
     5   137   140    1
     6    98    97    2
     7    96    97    1
     8    96    99    1
     9   140   141    1
    10   146   147    1
    11    73    70    1
    12    99   100    1
    13   141   142   ar
    14   141   143   ar
    15   133   134    2
    16   133   132    1
    17    70    69    1
    18    70    71    1
    19    72    71    2
    20    64    63    2
    21   142   144   ar
    22   143   145   ar
    23   147   148    1
    24   147   150    1
    25   132   131    1
    26   132   135    1
    27   154   153    1
    28   151   150    1
    29   151   152    1
    30    69    63   am
    31    71    74   am
    32   155   148   am
    33   155   156    1
    34   159   156    1
    35    63    62    1
    36   157   156    1
    37   157   158    2
    38   104   105    1
    39   100   101    1
    40   148   149    2
    41   153   152    1
    42    62    61    1
    43    62    65    1
    44   144   145   ar
    45    74    75    1
    46   102   101   ar
    47   107   106    2
    48   101   103   ar
    49   106   105    1
    50   105   108    1
    51    76    77    2
    52    76    75    1
    53    52    51    2
    54    75    78    1
    55    65    66    1
    56    51    50    1
    57    39    40    2
    58    39    38    1
    59   108   109    1
    60   111   109   ar
    61   109   110   ar
    62    49    50    1
    63    82    80   am
    64    50    53    1
    65    67    66   ar
    66    38    41    1
    67    38    37    1
    68    83    84    1
    69    66    68   ar
    70    41    42    1
    71    81    80    2
    72    80    79    1
    73    44    42   ar
    74    44    46   ar
    75    86    85    2
    76    78    79    1
    77   130   129   ar
    78   130   128   ar
    79    85    84    1
    80    42    43   ar
    81    46    47   ar
    82   129   127   ar
    83    84    87    1
    84    55    57   ar
    85    55    54   ar
    86    53    54    1
    87    57    59   ar
    88   128   126   ar
    89   123   124    2
    90   123   122    1
    91    54    56   ar
    92    59    60    1
    93    59    58   ar
    94    56    58   ar
    95   127   126   ar
    96   126   125    1
    97    43    45   ar
    98    87    88    1
    99    47    45   ar
   100    47    48    1
   101   122   125    1
   102   122   121    1
   103   119   118   ar
   104    88    90   ar
   105    88    89   ar
   106    90    92   ar
   107    89    91   ar
   108   118   117    1
   109   118   120   ar
   110    92    93   ar
   111    91    93   ar
   112   112   113    1
   113   117   116    1
   114    93    94    1
   115   116   113    1
   116   214   212   ar
   117   214   215   ar
   118   113   114    1
   119   212   209   ar
   120    28    27    1
   121    28    29    2
   122    34    35    2
   123    34    33    1
   124    31    29    1
   125    27    26    1
   126   215   213   ar
   127    29    30    1
   128   115   114    2
   129    36    33    1
   130   205   204    2
   131   209   207   ar
   132   209   211   ar
   133   206   207    1
   134   206   203    1
   135    26    25    1
   136    33    32    1
   137   207   208   ar
   138   213   211   ar
   139   211   210   ar
   140     9    10   ar
   141     9     7   ar
   142    12    10   ar
   143    12    14   ar
   144   204   203    1
   145   203   202    1
   146   208   210   ar
   147    10     8   ar
   148    14    13   ar
   149     7     6   ar
   150   160   161    1
   151    25    22    1
   152   165   164    1
   153    23    24    2
   154    23    22    1
   155   177   179   ar
   156   177   175   ar
   157     8     6   ar
   158     8    11   ar
   159   164   161    1
   160     6     5    1
   161   179   178   ar
   162    13    11   ar
   163   174   175   ar
   164   174   172   ar
   165     3     2    1
   166     3     4    2
   167    22    21    1
   168   161   162    1
   169   175   173   ar
   170     2     5    1
   171     2     1    1
   172   201   199   ar
   173   163   162    2
   174   172   171   ar
   175   178   176   ar
   176   173   176   ar
   177   173   171   ar
   178   199   200   ar
   179   199   198    1
   180   171   170    1
   181   198   195    1
   182   170   167    1
   183   166   167    1
   184    18    17    2
   185   195   194    1
   186   195   196    1
   187   167   168    1
   188   197   196    2
   189   169   168    2
   190   168   180   am
   191   183   182    2
   192    17    16    1
   193    20    19    1
   194   180   181    1
   195   182   181    1
   196   181   184    1
   197    19    16    1
   198    16    15    1
   199   184   185    1
   200   186   185   ar
   201   186   188   ar
   202   185   187   ar
   203   188   189   ar
   204   187   190   ar
   205   187   189   ar
   206   190   192   ar
   207   189   191   ar
   208   192   193   ar
   209   191   193   ar
