@<TRIPOS>MOLECULE
tmp/1ovzA02.pdb
 86 84 0 0 0
SMALL
GASTEIGER

@<TRIPOS>ATOM
      1  N         41.6730   59.8530  -20.8210 N.3    25  ALA25      -0.1231
      2  CA        40.2910   59.9990  -21.2500 C.3    25  ALA25       0.1694
      3  C         39.6150   58.6540  -21.4710 C.2    25  ALA25       0.2591
      4  O         40.2220   57.7140  -21.9650 O.2    25  ALA25      -0.2718
      5  CB        40.2350   60.8230  -22.5290 C.3    25  ALA25       0.0304
      6  N         38.3480   58.5670  -21.0960 N.am   26  ILE26      -0.1980
      7  CA        37.5810   57.3460  -21.2870 C.3    26  ILE26       0.1595
      8  C         36.2800   57.7510  -21.9730 C.2    26  ILE26       0.2287
      9  O         35.3540   58.2590  -21.3390 O.2    26  ILE26      -0.2864
     10  CB        37.3060   56.6460  -19.9370 C.3    26  ILE26       0.0276
     11  CG1       38.6310   56.2540  -19.2810 C.3    26  ILE26       0.0022
     12  CG2       36.4620   55.4090  -20.1430 C.3    26  ILE26       0.0022
     13  CD1       39.5380   55.4230  -20.1560 C.3    26  ILE26       0.0001
     14  N         32.8110   57.7810  -20.2830 N.3    29  ALA29      -0.1231
     15  CA        32.5950   58.4130  -18.9790 C.3    29  ALA29       0.1694
     16  C         31.7530   59.6790  -19.0310 C.2    29  ALA29       0.2592
     17  O         32.1000   60.6400  -19.7150 O.2    29  ALA29      -0.2718
     18  CB        33.9340   58.7180  -18.3280 C.3    29  ALA29       0.0304
     19  N         30.6470   59.6860  -18.2960 N.am   30  TYR30      -0.1962
     20  CA        29.7870   60.8570  -18.2730 C.3    30  TYR30       0.1771
     21  C         30.4580   61.9340  -17.4290 C.2    30  TYR30       0.2619
     22  O         30.2970   63.1160  -17.6900 O.2    30  TYR30      -0.2715
     23  CB        28.4220   60.5230  -17.6710 C.3    30  TYR30       0.0574
     24  CG        27.5870   59.5510  -18.4770 C.ar   30  TYR30      -0.0198
     25  CD1       27.8160   58.1760  -18.4140 C.ar   30  TYR30      -0.0009
     26  CD2       26.5460   60.0080  -19.2880 C.ar   30  TYR30      -0.0009
     27  CE1       27.0180   57.2770  -19.1390 C.ar   30  TYR30       0.0417
     28  CE2       25.7480   59.1260  -20.0100 C.ar   30  TYR30       0.0417
     29  CZ        25.9820   57.7640  -19.9320 C.ar   30  TYR30       0.1957
     30  OH        25.1540   56.8930  -20.6160 O.3    30  TYR30      -0.2866
     31  N         31.2010   61.5090  -16.4100 N.am   31  LEU31      -0.1963
     32  CA        31.9090   62.4150  -15.5090 C.3    31  LEU31       0.1728
     33  C         33.2190   61.8030  -15.0240 C.2    31  LEU31       0.2616
     34  O         33.2810   60.6200  -14.6990 O.2    31  LEU31      -0.2715
     35  CB        31.0390   62.7840  -14.2970 C.3    31  LEU31       0.0311
     36  CG        31.7740   63.5670  -13.1940 C.3    31  LEU31       0.0022
     37  CD1       32.3160   64.8320  -13.7600 C.3    31  LEU31       0.0001
     38  CD2       30.8430   63.8870  -12.0500 C.3    31  LEU31       0.0001
     39  N         34.2670   62.6170  -14.9880 N.am   32  THR32      -0.1951
     40  CA        35.5720   62.1590  -14.5490 C.3    32  THR32       0.1897
     41  C         36.0750   63.0800  -13.4510 C.2    32  THR32       0.2313
     42  O         36.2430   64.2840  -13.6750 O.2    32  THR32      -0.2863
     43  CB        36.6010   62.1920  -15.6940 C.3    32  THR32       0.1794
     44  OG1       36.1220   61.4510  -16.8210 O.3    32  THR32      -0.2208
     45  CG2       37.8840   61.5650  -15.2360 C.3    32  THR32       0.0378
     46  N         38.8990   70.5860  -11.8290 N.3    48  ARG48      -0.1245
     47  CA        38.9480   70.3230  -13.2640 C.3    48  ARG48       0.1563
     48  C         39.3200   71.5440  -14.1270 C.2    48  ARG48       0.2260
     49  O         38.9950   72.6790  -13.7960 O.2    48  ARG48      -0.2867
     50  CB        37.5990   69.7530  -13.7100 C.3    48  ARG48       0.0307
     51  CG        37.5840   69.2370  -15.1290 C.3    48  ARG48       0.0489
     52  CD        38.5860   68.1240  -15.3020 C.3    48  ARG48       0.2205
     53  NE        38.9240   67.9260  -16.7070 N.pl3  48  ARG48      -0.0865
     54  CZ        38.0930   67.4130  -17.6080 C.cat  48  ARG48       0.5346
     55  NH1       36.8760   67.0480  -17.2360 N.pl3  48  ARG48       0.1354
     56  NH2       38.4820   67.2690  -18.8740 N.pl3  48  ARG48       0.1354
     57  N         39.0110   72.6150  -21.8590 N.3    51  PHE51      -0.1241
     58  CA        39.4920   72.0080  -23.1080 C.3    51  PHE51       0.1605
     59  C         40.3190   72.8870  -24.0520 C.2    51  PHE51       0.2264
     60  O         39.7820   73.7560  -24.7390 O.2    51  PHE51      -0.2867
     61  CB        38.3070   71.4210  -23.8680 C.3    51  PHE51       0.0534
     62  CG        37.8110   70.0490  -23.5160 C.ar   51  PHE51      -0.0203
     63  CD1       38.3300   69.4380  -22.4610 C.ar   51  PHE51      -0.0042
     64  CD2       36.7800   69.4560  -24.1940 C.ar   51  PHE51      -0.0042
     65  CE1       37.8930   68.1420  -22.0680 C.ar   51  PHE51      -0.0003
     66  CE2       36.3080   68.1860  -23.7730 C.ar   51  PHE51      -0.0003
     67  CZ        36.8880   67.5460  -22.7550 C.ar   51  PHE51      -0.0000
     68  N         41.4790   64.6870  -19.5150 N.3    57  PRO57      -0.2116
     69  CA        41.1230   65.5340  -18.3700 C.3    57  PRO57       0.1372
     70  C         42.2920   65.8880  -17.4570 C.2    57  PRO57       0.2244
     71  O         43.0250   65.0160  -17.0110 O.2    57  PRO57      -0.2868
     72  CB        40.0870   64.6920  -17.6340 C.3    57  PRO57       0.0268
     73  CG        39.4120   63.9760  -18.7320 C.3    57  PRO57       0.0207
     74  CD        40.5630   63.5380  -19.6070 C.3    57  PRO57       0.0892
     75  N         35.8900   57.3080  -13.0490 N.3    76  TYR76      -0.1241
     76  CA        35.0920   57.5250  -14.2450 C.3    76  TYR76       0.1605
     77  C         33.6980   56.9620  -14.0350 C.2    76  TYR76       0.2264
     78  O         33.5280   55.7460  -13.9040 O.2    76  TYR76      -0.2867
     79  CB        35.7220   56.8420  -15.4540 C.3    76  TYR76       0.0534
     80  CG        37.1740   57.1830  -15.6900 C.ar   76  TYR76      -0.0201
     81  CD1       38.1840   56.6110  -14.9170 C.ar   76  TYR76      -0.0009
     82  CD2       37.5420   58.0640  -16.7030 C.ar   76  TYR76      -0.0009
     83  CE1       39.5290   56.9020  -15.1460 C.ar   76  TYR76       0.0417
     84  CE2       38.8830   58.3660  -16.9410 C.ar   76  TYR76       0.0417
     85  CZ        39.8740   57.7790  -16.1600 C.ar   76  TYR76       0.1957
     86  OH        41.2000   58.0680  -16.4070 O.3    76  TYR76      -0.2866
@<TRIPOS>BOND
     1    60    59    2
     2    64    66   ar
     3    64    62   ar
     4    59    58    1
     5    61    62    1
     6    61    58    1
     7    66    67   ar
     8    62    63   ar
     9    58    57    1
    10    67    65   ar
    11     5     2    1
    12    63    65   ar
    13     8     9    2
    14     8     7    1
    15     4     3    2
    16     3     2    1
    17     3     6   am
    18     7     6    1
    19     7    10    1
    20     2     1    1
    21    30    29    1
    22    14    15    1
    23    13    11    1
    24    12    10    1
    25    28    29   ar
    26    28    26   ar
    27    10    11    1
    28    29    27   ar
    29    17    16    2
    30    74    68    1
    31    74    73    1
    32    68    69    1
    33    26    24   ar
    34    27    25   ar
    35    16    15    1
    36    16    19   am
    37    15    18    1
    38    56    54    1
    39    73    72    1
    40    24    25   ar
    41    24    23    1
    42    69    72    1
    43    69    70    1
    44    19    20    1
    45    20    23    1
    46    20    21    1
    47    22    21    2
    48    54    55    1
    49    54    53    2
    50    70    71    2
    51    21    31   am
    52    84    82   ar
    53    84    85   ar
    54    44    43    1
    55    53    52    1
    56    82    80   ar
    57    31    32    1
    58    86    85    1
    59    85    83   ar
    60    43    45    1
    61    43    40    1
    62    80    79    1
    63    80    81   ar
    64    32    33    1
    65    32    35    1
    66    79    76    1
    67    52    51    1
    68    83    81   ar
    69    51    50    1
    70    33    39   am
    71    33    34    2
    72    39    40    1
    73    40    41    1
    74    35    36    1
    75    76    77    1
    76    76    75    1
    77    48    49    2
    78    48    47    1
    79    77    78    2
    80    37    36    1
    81    50    47    1
    82    42    41    2
    83    47    46    1
    84    36    38    1
