@<TRIPOS>MOLECULE
tmp/1ow0A00.pdb
 84 84 0 0 0
SMALL
GASTEIGER

@<TRIPOS>ATOM
      1  N         13.1040   60.3030   -1.3060 N.3   105  ARG105     -0.1231
      2  CA        13.0690   59.4990   -0.0840 C.3   105  ARG105      0.1679
      3  C         14.1040   58.3630   -0.1980 C.2   105  ARG105      0.2434
      4  O         14.2840   57.7920   -1.2680 O.2   105  ARG105     -0.2733
      5  CB        11.6220   58.9300    0.1640 C.3   105  ARG105      0.0321
      6  CG        10.5890   60.0120    0.2340 C.3   105  ARG105      0.0489
      7  CD         9.2840   59.4080    0.6380 C.3   105  ARG105      0.2205
      8  NE         8.2750   60.4230    0.8310 N.pl3 105  ARG105     -0.0865
      9  CZ         7.0880   60.3310    0.2710 C.cat 105  ARG105      0.5346
     10  NH1        6.7940   59.2880   -0.4820 N.pl3 105  ARG105      0.1354
     11  NH2        6.2090   61.3100    0.4450 N.pl3 105  ARG105      0.1354
     12  N         14.8160   58.0490    0.9000 N.am  106  PRO106     -0.2718
     13  CA        15.8240   56.9830    0.9130 C.3   106  PRO106      0.1535
     14  C         15.2100   55.5920    0.9050 C.2   106  PRO106      0.2598
     15  O         14.0550   55.4270    1.2660 O.2   106  PRO106     -0.2715
     16  CB        16.5750   57.2230    2.2210 C.3   106  PRO106      0.0310
     17  CG        16.2840   58.6340    2.5500 C.3   106  PRO106      0.0237
     18  CD        14.8630   58.8050    2.1560 C.3   106  PRO106      0.0939
     19  N         15.9860   54.5990    0.4920 N.am  107  GLU107     -0.1964
     20  CA        15.5210   53.2270    0.4990 C.3   107  GLU107      0.1733
     21  C         16.5200   52.4670    1.3760 C.2   107  GLU107      0.2616
     22  O         17.6470   52.2170    0.9540 O.2   107  GLU107     -0.2715
     23  CB        15.4950   52.6460   -0.9130 C.3   107  GLU107      0.0429
     24  CG        14.8830   51.2550   -0.9710 C.3   107  GLU107      0.1163
     25  CD        13.4630   51.2180   -0.4310 C.2   107  GLU107      0.3649
     26  OE1       12.5710   51.8220   -1.0650 O.co2 107  GLU107     -0.2457
     27  OE2       13.2390   50.5930    0.6290 O.co2 107  GLU107     -0.2457
     28  N         16.1060   52.1020    2.5900 N.am  108  VAL108     -0.1977
     29  CA        16.9900   51.4110    3.5330 C.3   108  VAL108      0.1596
     30  C         17.0280   49.8880    3.4340 C.2   108  VAL108      0.2287
     31  O         16.0290   49.2600    3.0820 O.2   108  VAL108     -0.2864
     32  CB        16.6300   51.7910    4.9680 C.3   108  VAL108      0.0276
     33  CG1       17.7180   51.3340    5.9090 C.3   108  VAL108      0.0022
     34  CG2       16.4170   53.2930    5.0630 C.3   108  VAL108      0.0022
     35  N         12.0100   61.8250    4.2820 N.3   198  LEU198     -0.1231
     36  CA        11.0610   60.9520    4.9560 C.3   198  LEU198      0.1678
     37  C         10.0600   61.8030    5.7300 C.2   198  LEU198      0.2434
     38  O         10.4560   62.7160    6.4690 O.2   198  LEU198     -0.2733
     39  CB        11.7850   60.0120    5.9080 C.3   198  LEU198      0.0284
     40  CG        12.6490   58.9670    5.2120 C.3   198  LEU198      0.0019
     41  CD1       13.3330   58.0860    6.2480 C.3   198  LEU198      0.0001
     42  CD2       11.7760   58.1450    4.2900 C.3   198  LEU198      0.0001
     43  N          8.7510   61.5070    5.5800 N.am  199  PRO199     -0.2718
     44  CA         7.6030   62.1800    6.2120 C.3   199  PRO199      0.1535
     45  C          7.7200   62.0450    7.7230 C.2   199  PRO199      0.2598
     46  O          7.5780   63.0090    8.4780 O.2   199  PRO199     -0.2715
     47  CB         6.4030   61.3930    5.6960 C.3   199  PRO199      0.0310
     48  CG         6.9330   60.5870    4.5600 C.3   199  PRO199      0.0237
     49  CD         8.3140   60.2420    4.9810 C.3   199  PRO199      0.0939
     50  N          7.9650   60.8090    8.1440 N.am  200  LEU200     -0.1978
     51  CA         8.1510   60.5000    9.5480 C.3   200  LEU200      0.1596
     52  C          9.6560   60.5380    9.8910 C.2   200  LEU200      0.2287
     53  O         10.1550   59.6960   10.6350 O.2   200  LEU200     -0.2864
     54  CB         7.5780   59.1100    9.8620 C.3   200  LEU200      0.0297
     55  CG         6.0900   58.8700    9.5880 C.3   200  LEU200      0.0022
     56  CD1        5.6820   57.5960   10.3230 C.3   200  LEU200      0.0001
     57  CD2        5.2370   60.0560   10.0570 C.3   200  LEU200      0.0001
     58  N         12.1930   59.3500   10.0770 N.3   202  PHE202     -0.1227
     59  CA        13.0070   58.1560   10.2020 C.3   202  PHE202      0.1736
     60  C         12.3450   56.9650    9.5870 C.2   202  PHE202      0.2596
     61  O         11.1350   56.9550    9.3610 O.2   202  PHE202     -0.2718
     62  CB        13.3100   57.8350   11.6600 C.3   202  PHE202      0.0547
     63  CG        14.4880   58.5620   12.1940 C.ar  202  PHE202     -0.0202
     64  CD1       14.4220   59.9320   12.4610 C.ar  202  PHE202     -0.0042
     65  CD2       15.6880   57.8980   12.3900 C.ar  202  PHE202     -0.0042
     66  CE1       15.5510   60.6380   12.9180 C.ar  202  PHE202     -0.0003
     67  CE2       16.8240   58.5960   12.8450 C.ar  202  PHE202     -0.0003
     68  CZ        16.7510   59.9680   13.1070 C.ar  202  PHE202     -0.0000
     69  N         13.1590   55.9560    9.3190 N.am  203  THR203     -0.1939
     70  CA        12.6870   54.7220    8.7350 C.3   203  THR203      0.2028
     71  C         13.4240   53.6740    9.4920 C.2   203  THR203      0.2642
     72  O         14.6480   53.7060    9.5690 O.2   203  THR203     -0.2714
     73  CB        13.0790   54.5880    7.2640 C.3   203  THR203      0.1808
     74  OG1       12.3110   55.5110    6.4780 O.3   203  THR203     -0.2208
     75  CG2       12.8480   53.1500    6.7850 C.3   203  THR203      0.0379
     76  N         12.6770   52.7470   10.0600 N.am  204  GLN204     -0.1976
     77  CA        13.2790   51.6760   10.8280 C.3   204  GLN204      0.1601
     78  C         13.3880   50.4870    9.8990 C.2   204  GLN204      0.2287
     79  O         12.9360   50.5300    8.7600 O.2   204  GLN204     -0.2864
     80  CB        12.3860   51.3510   12.0230 C.3   204  GLN204      0.0394
     81  CG        13.0420   50.5610   13.1330 C.3   204  GLN204      0.0908
     82  CD        12.6080   51.0550   14.5020 C.2   204  GLN204      0.2608
     83  OE1       11.4270   51.3200   14.7380 O.2   204  GLN204     -0.2717
     84  NE2       13.5630   51.1770   15.4120 N.am  204  GLN204     -0.0878
@<TRIPOS>BOND
     1     1     2    1
     2     4     3    2
     3    26    25   ar
     4    24    23    1
     5    24    25    1
     6    23    20    1
     7    10     9    1
     8    25    27   ar
     9     3     2    1
    10     3    12   am
    11     2     5    1
    12     5     6    1
    13     6     7    1
    14     9    11    1
    15     9     8    2
    16    19    20    1
    17    19    14   am
    18    20    21    1
    19     7     8    1
    20    12    13    1
    21    12    18    1
    22    14    13    1
    23    14    15    2
    24    13    16    1
    25    22    21    2
    26    21    28   am
    27    18    17    1
    28    16    17    1
    29    28    29    1
    30    31    30    2
    31    30    29    1
    32    29    32    1
    33    35    36    1
    34    42    40    1
    35    48    49    1
    36    48    47    1
    37    36    37    1
    38    36    39    1
    39    32    34    1
    40    32    33    1
    41    49    43    1
    42    40    39    1
    43    40    41    1
    44    43    37   am
    45    43    44    1
    46    47    44    1
    47    37    38    2
    48    44    45    1
    49    74    73    1
    50    75    73    1
    51    73    70    1
    52    45    50   am
    53    45    46    2
    54    50    51    1
    55    70    69    1
    56    70    71    1
    57    79    78    2
    58    69    60   am
    59    61    60    2
    60    71    72    2
    61    71    76   am
    62    51    54    1
    63    51    52    1
    64    60    59    1
    65    55    54    1
    66    55    57    1
    67    55    56    1
    68    52    53    2
    69    78    77    1
    70    76    77    1
    71    58    59    1
    72    59    62    1
    73    77    80    1
    74    62    63    1
    75    80    81    1
    76    63    65   ar
    77    63    64   ar
    78    65    67   ar
    79    64    66   ar
    80    67    68   ar
    81    66    68   ar
    82    81    82    1
    83    82    83    2
    84    82    84   am
