@<TRIPOS>MOLECULE
tmp/1ow4A00.pdb
 143 133 0 0 0
SMALL
GASTEIGER

@<TRIPOS>ATOM
      1  N         -3.8700   10.0160  -13.2040 N.3     7  TYR7       -0.1241
      2  CA        -5.2880   10.2660  -13.3210 C.3     7  TYR7        0.1605
      3  C         -5.5770   10.8040  -14.7180 C.2     7  TYR7        0.2264
      4  O         -6.5120   10.3870  -15.3950 O.2     7  TYR7       -0.2867
      5  CB        -5.7400   11.2310  -12.2390 C.3     7  TYR7        0.0534
      6  CG        -7.2030   11.5670  -12.2590 C.ar    7  TYR7       -0.0201
      7  CD1       -7.6810   12.6630  -12.9590 C.ar    7  TYR7       -0.0009
      8  CD2       -8.1300   10.7870  -11.6060 C.ar    7  TYR7       -0.0009
      9  CE1       -9.0390   12.9890  -12.9640 C.ar    7  TYR7        0.0417
     10  CE2       -9.4750   11.0880  -11.6250 C.ar    7  TYR7        0.0417
     11  CZ        -9.9430   12.1930  -12.2870 C.ar    7  TYR7        0.1957
     12  OH       -11.2960   12.4750  -12.2630 O.3     7  TYR7       -0.2866
     13  N         -8.8840   17.5060  -11.8510 N.3    35  ARG35      -0.1245
     14  CA        -9.5870   17.0240  -10.6660 C.3    35  ARG35       0.1563
     15  C         -9.8710   18.2300   -9.7370 C.2    35  ARG35       0.2260
     16  O         -9.7810   18.1480   -8.4810 O.2    35  ARG35      -0.2867
     17  CB        -8.8110   15.8780  -10.0070 C.3    35  ARG35       0.0307
     18  CG        -9.5940   14.6550   -9.7410 C.3    35  ARG35       0.0489
     19  CD        -8.7470   13.5170   -9.2180 C.3    35  ARG35       0.2205
     20  NE        -9.1880   13.2420   -7.8860 N.pl3  35  ARG35      -0.0865
     21  CZ        -8.7470   13.8420   -6.7910 C.cat  35  ARG35       0.5346
     22  NH1       -7.7280   14.7010   -6.8200 N.pl3  35  ARG35       0.1354
     23  NH2       -9.2960   13.5260   -5.6440 N.pl3  35  ARG35       0.1354
     24  N        -17.6500   15.0120  -15.8900 N.3    47  LEU47      -0.1245
     25  CA       -17.0390   14.0000  -15.0490 C.3    47  LEU47       0.1561
     26  C        -17.9680   12.8150  -14.8090 C.2    47  LEU47       0.2260
     27  O        -17.5290   11.6840  -14.7820 O.2    47  LEU47      -0.2867
     28  CB       -16.5480   14.5450  -13.7070 C.3    47  LEU47       0.0270
     29  CG       -15.8310   13.5200  -12.8180 C.3    47  LEU47       0.0019
     30  CD1      -14.5760   12.9150  -13.4780 C.3    47  LEU47       0.0001
     31  CD2      -15.4500   14.0610  -11.4560 C.3    47  LEU47       0.0001
     32  N        -16.7010    9.0890  -15.4160 N.3    51  LEU51      -0.1245
     33  CA       -16.6260    8.1300  -14.3120 C.3    51  LEU51       0.1561
     34  C        -17.4620    6.8840  -14.6350 C.2    51  LEU51       0.2260
     35  O        -17.1330    5.7860  -14.2150 O.2    51  LEU51      -0.2867
     36  CB       -17.1080    8.7660  -13.0190 C.3    51  LEU51       0.0270
     37  CG       -16.1550    9.7860  -12.4010 C.3    51  LEU51       0.0019
     38  CD1      -16.8230   10.4220  -11.2380 C.3    51  LEU51       0.0001
     39  CD2      -14.7990    9.1600  -12.0140 C.3    51  LEU51       0.0001
     40  N        -16.8180    3.3280  -12.5690 N.3    56  LEU56      -0.1245
     41  CA       -17.1200    3.6860  -11.1940 C.3    56  LEU56       0.1561
     42  C        -18.5980    3.6850  -10.8560 C.2    56  LEU56       0.2260
     43  O        -18.9650    3.7470   -9.6870 O.2    56  LEU56      -0.2867
     44  CB       -16.4770    5.0210  -10.8110 C.3    56  LEU56       0.0270
     45  CG       -16.5280    5.4920   -9.3580 C.3    56  LEU56       0.0019
     46  CD1      -15.9300    4.4320   -8.4340 C.3    56  LEU56       0.0001
     47  CD2      -15.8330    6.8270   -9.1590 C.3    56  LEU56       0.0001
     48  N        -14.6630   -0.8790   -6.2930 N.3    69  LEU69      -0.1245
     49  CA       -13.7870    0.2870   -6.3980 C.3    69  LEU69       0.1561
     50  C        -12.3940   -0.0550   -6.8780 C.2    69  LEU69       0.2260
     51  O        -11.6820    0.7900   -7.4250 O.2    69  LEU69      -0.2867
     52  CB       -13.6170    0.8920   -4.9830 C.3    69  LEU69       0.0270
     53  CG       -14.1110    2.2800   -4.6340 C.3    69  LEU69       0.0019
     54  CD1      -15.2110    2.7480   -5.5830 C.3    69  LEU69       0.0001
     55  CD2      -14.5210    2.3890   -3.1960 C.3    69  LEU69       0.0001
     56  N        -11.1640    0.3130  -10.4920 N.3    72  VAL72      -0.1231
     57  CA       -11.0940    1.7420  -10.8410 C.3    72  VAL72       0.1692
     58  C         -9.8390    2.3940  -10.2390 C.2    72  VAL72       0.2591
     59  O         -9.0860    3.0980  -10.9140 O.2    72  VAL72      -0.2718
     60  CB       -12.3430    2.4830  -10.3920 C.3    72  VAL72       0.0266
     61  CG1      -12.2010    3.9760  -10.6950 C.3    72  VAL72       0.0020
     62  CG2      -13.5600    1.8890  -11.0580 C.3    72  VAL72       0.0020
     63  N         -9.5890    2.1300   -8.9610 N.am   73  MET73      -0.1979
     64  CA        -8.4070    2.6750   -8.3160 C.3    73  MET73       0.1605
     65  C         -7.1560    2.2090   -9.0550 C.2    73  MET73       0.2287
     66  O         -6.2320    3.0040   -9.2700 O.2    73  MET73      -0.2864
     67  CB        -8.3180    2.2140   -6.8440 C.3    73  MET73       0.0413
     68  CG        -7.0240    2.6640   -6.2290 C.3    73  MET73       0.0598
     69  SD        -6.9070    2.4190   -4.4870 S.3    73  MET73      -0.1393
     70  CE        -6.2830    0.8020   -4.4850 C.3    73  MET73       0.0692
     71  N         -6.8520    4.1740  -12.4270 N.3    76  LEU76      -0.1231
     72  CA        -6.5130    5.5840  -12.2010 C.3    76  LEU76       0.1693
     73  C         -5.1170    5.7810  -11.6560 C.2    76  LEU76       0.2592
     74  O         -4.4480    6.7080  -12.0660 O.2    76  LEU76      -0.2718
     75  CB        -7.5050    6.2270  -11.2310 C.3    76  LEU76       0.0284
     76  CG        -8.9320    6.3990  -11.7010 C.3    76  LEU76       0.0019
     77  CD1       -9.8140    7.0520  -10.6370 C.3    76  LEU76       0.0001
     78  CD2       -9.0460    7.1940  -12.9950 C.3    76  LEU76       0.0001
     79  N         -4.6900    4.9200  -10.7110 N.am   77  TYR77      -0.1976
     80  CA        -3.5290    5.2150   -9.8530 C.3    77  TYR77       0.1639
     81  C         -2.5230    4.0950   -9.6550 C.2    77  TYR77       0.2290
     82  O         -1.4210    4.3620   -9.1780 O.2    77  TYR77      -0.2864
     83  CB        -3.9900    5.6350   -8.4700 C.3    77  TYR77       0.0560
     84  CG        -4.8070    6.8680   -8.4820 C.ar   77  TYR77      -0.0198
     85  CD1       -6.1200    6.8740   -8.0220 C.ar   77  TYR77      -0.0009
     86  CD2       -4.2580    8.0740   -8.9320 C.ar   77  TYR77      -0.0009
     87  CE1       -6.8420    8.0170   -8.0300 C.ar   77  TYR77       0.0417
     88  CE2       -4.9920    9.2120   -8.9320 C.ar   77  TYR77       0.0417
     89  CZ        -6.2770    9.1780   -8.5000 C.ar   77  TYR77       0.1957
     90  OH        -7.0150   10.3190   -8.4830 O.3    77  TYR77      -0.2866
     91  N         -2.4680    7.3310   -1.7350 N.3    84  THR84      -0.1218
     92  CA        -3.5170    7.3680   -2.7390 C.3    84  THR84       0.1862
     93  C         -4.3610    6.1380   -2.5250 C.2    84  THR84       0.2287
     94  O         -5.5950    6.2020   -2.4660 O.2    84  THR84      -0.2866
     95  CB        -2.9160    7.3090   -4.1320 C.3    84  THR84       0.1770
     96  OG1       -2.1760    8.5060   -4.4120 O.3    84  THR84      -0.2211
     97  CG2       -4.0290    7.3070   -5.1990 C.3    84  THR84       0.0375
     98  N         -6.5600    6.4860    0.4690 N.3    87  LYS87      -0.1231
     99  CA        -7.6650    7.3280    0.1570 C.3    87  LYS87       0.1693
    100  C         -8.8780    6.5650   -0.3480 C.2    87  LYS87       0.2591
    101  O         -9.9820    7.1130   -0.3240 O.2    87  LYS87      -0.2718
    102  CB        -7.2560    8.3040   -0.9410 C.3    87  LYS87       0.0285
    103  CG        -6.9510    9.6820   -0.4540 C.3    87  LYS87       0.0035
    104  CD        -8.2140   10.3970   -0.0300 C.3    87  LYS87       0.0206
    105  CE        -7.9440   11.8710    0.2500 C.3    87  LYS87       0.1093
    106  NZ        -9.1960   12.6750    0.1820 N.3    87  LYS87      -0.1314
    107  N         -8.6810    5.3720   -0.9010 N.am   88  ALA88      -0.1980
    108  CA        -9.8290    4.5180   -1.2320 C.3    88  ALA88       0.1597
    109  C        -10.8170    4.3600   -0.0950 C.2    88  ALA88       0.2287
    110  O        -11.9930    4.1080   -0.3600 O.2    88  ALA88      -0.2864
    111  CB        -9.4010    3.1660   -1.7640 C.3    88  ALA88       0.0319
    112  N        -13.0100    7.4240   -0.3780 N.3    91  VAL91      -0.1245
    113  CA       -13.8170    7.2550   -1.5830 C.3    91  VAL91       0.1561
    114  C        -15.0030    6.3130   -1.2980 C.2    91  VAL91       0.2260
    115  O        -16.1420    6.6280   -1.6150 O.2    91  VAL91      -0.2867
    116  CB       -12.9840    6.6850   -2.7290 C.3    91  VAL91       0.0252
    117  CG1      -13.8400    6.2240   -3.9130 C.3    91  VAL91       0.0019
    118  CG2      -11.8860    7.7070   -3.1570 C.3    91  VAL91       0.0019
    119  N        -20.1610   13.8570   -4.3430 N.3   112  PHE112     -0.1227
    120  CA       -19.1110   12.8410   -4.1970 C.3   112  PHE112      0.1736
    121  C        -17.7110   13.4510   -4.1990 C.2   112  PHE112      0.2596
    122  O        -16.9290   13.1990   -3.3010 O.2   112  PHE112     -0.2718
    123  CB       -19.2390   11.7670   -5.2850 C.3   112  PHE112      0.0547
    124  CG       -18.0820   10.8360   -5.3570 C.ar  112  PHE112     -0.0202
    125  CD1      -17.8510    9.8900   -4.3540 C.ar  112  PHE112     -0.0042
    126  CD2      -17.2250   10.8930   -6.4170 C.ar  112  PHE112     -0.0042
    127  CE1      -16.7860    9.0150   -4.4590 C.ar  112  PHE112     -0.0003
    128  CE2      -16.1400   10.0480   -6.5290 C.ar  112  PHE112     -0.0003
    129  CZ       -15.9060    9.0880   -5.5370 C.ar  112  PHE112     -0.0000
    130  N        -17.4090   14.2430   -5.2270 N.am  113  THR113     -0.1953
    131  CA       -16.0920   14.7920   -5.3880 C.3   113  THR113      0.1897
    132  C        -15.7910   15.7950   -4.2930 C.2   113  THR113      0.2313
    133  O        -14.6550   15.8760   -3.8370 O.2   113  THR113     -0.2863
    134  CB       -15.8400   15.4120   -6.7630 C.3   113  THR113      0.1794
    135  OG1      -16.8160   16.3860   -7.0510 O.3   113  THR113     -0.2208
    136  CG2      -15.9540   14.3890   -7.8490 C.3   113  THR113      0.0378
    137  N        -14.9560   13.7480   -1.1530 N.3   116  VAL116     -0.1245
    138  CA       -13.6280   13.1750   -1.2400 C.3   116  VAL116      0.1561
    139  C        -12.5590   14.2310   -1.0180 C.2   116  VAL116      0.2260
    140  O        -11.5900   13.9680   -0.3160 O.2   116  VAL116     -0.2867
    141  CB       -13.4140   12.4320   -2.5710 C.3   116  VAL116      0.0252
    142  CG1      -11.9600   11.9850   -2.6950 C.3   116  VAL116      0.0019
    143  CG2      -14.3670   11.2570   -2.6320 C.3   116  VAL116      0.0019
@<TRIPOS>BOND
     1    24    25    1
     2    32    33    1
     3     4     3    2
     4    25    26    1
     5    25    28    1
     6    26    27    2
     7     3     2    1
     8    34    33    1
     9    34    35    2
    10    33    36    1
    11    28    29    1
    12    30    29    1
    13     2     1    1
    14     2     5    1
    15    36    37    1
    16    78    76    1
    17     9     7   ar
    18     9    11   ar
    19     7     6   ar
    20    29    31    1
    21    40    41    1
    22    71    72    1
    23    37    39    1
    24    37    38    1
    25    11    12    1
    26    11    10   ar
    27     6     5    1
    28     6     8   ar
    29    72    73    1
    30    72    75    1
    31    74    73    2
    32    13    14    1
    33    76    75    1
    34    76    77    1
    35    73    79   am
    36    10     8   ar
    37    41    42    1
    38    41    44    1
    39    62    60    1
    40    59    58    2
    41    42    43    2
    42    57    56    1
    43    57    60    1
    44    57    58    1
    45    44    45    1
    46    79    80    1
    47    61    60    1
    48    14    17    1
    49    14    15    1
    50    58    63   am
    51    17    18    1
    52    80    81    1
    53    80    83    1
    54    18    19    1
    55    15    16    2
    56    81    82    2
    57    45    47    1
    58    45    46    1
    59    66    65    2
    60    19    20    1
    61    65    64    1
    62    63    64    1
    63    86    88   ar
    64    86    84   ar
    65    88    89   ar
    66    89    90    1
    67    89    87   ar
    68    84    83    1
    69    84    85   ar
    70    64    67    1
    71    87    85   ar
    72    20    21    2
    73   136   134    1
    74    51    50    2
    75   135   134    1
    76    50    49    1
    77    67    68    1
    78    22    21    1
    79    21    23    1
    80   134   131    1
    81   128   126   ar
    82   128   129   ar
    83   126   124   ar
    84    49    48    1
    85    49    52    1
    86    68    69    1
    87    54    53    1
    88   129   127   ar
    89   131   130    1
    90   131   132    1
    91   124   123    1
    92   124   125   ar
    93   123   120    1
    94   130   121   am
    95    97    95    1
    96    52    53    1
    97    53    55    1
    98    69    70    1
    99   127   125   ar
   100    96    95    1
   101   119   120    1
   102   132   133    2
   103   121   120    1
   104   121   122    2
   105    95    92    1
   106   117   116    1
   107   118   116    1
   108    92    93    1
   109    92    91    1
   110   116   113    1
   111   142   141    1
   112   143   141    1
   113   141   138    1
   114    93    94    2
   115   111   108    1
   116   115   114    2
   117   113   114    1
   118   113   112    1
   119   138   137    1
   120   138   139    1
   121   108   107    1
   122   108   109    1
   123   139   140    2
   124   102   103    1
   125   102    99    1
   126   107   100   am
   127   103   104    1
   128   110   109    2
   129   100   101    2
   130   100    99    1
   131   104   105    1
   132    99    98    1
   133   106   105    1
