@<TRIPOS>MOLECULE
tmp/1ow7B00.pdb
 120 110 0 0 0
SMALL
GASTEIGER

@<TRIPOS>ATOM
      1  N         -1.6020   71.7740   48.3840 N.3    43  VAL43      -0.1245
      2  CA        -0.2220   71.4410   48.6870 C.3    43  VAL43       0.1561
      3  C         -0.0630   69.9130   48.5880 C.2    43  VAL43       0.2260
      4  O          0.9050   69.4150   48.0170 O.2    43  VAL43      -0.2867
      5  CB         0.2220   71.9610   50.0780 C.3    43  VAL43       0.0252
      6  CG1        1.6360   71.4660   50.4020 C.3    43  VAL43       0.0019
      7  CG2        0.2190   73.4940   50.0490 C.3    43  VAL43       0.0019
      8  N          0.1840   68.6240   45.0800 N.3    46  VAL46      -0.1231
      9  CA         1.4860   68.6880   44.4570 C.3    46  VAL46       0.1692
     10  C          2.3810   67.5900   45.0390 C.2    46  VAL46       0.2591
     11  O          3.2150   67.0280   44.3330 O.2    46  VAL46      -0.2718
     12  CB         2.1550   70.0520   44.6740 C.3    46  VAL46       0.0266
     13  CG1        3.4740   70.0980   43.9320 C.3    46  VAL46       0.0020
     14  CG2        1.2520   71.1660   44.1770 C.3    46  VAL46       0.0020
     15  N          2.2040   67.2810   46.3250 N.am   47  LYS47      -0.1980
     16  CA         2.9980   66.2450   46.9950 C.3    47  LYS47       0.1596
     17  C          2.8360   64.9970   46.1700 C.2    47  LYS47       0.2287
     18  O          3.8050   64.3490   45.7870 O.2    47  LYS47      -0.2864
     19  CB         2.4610   65.9670   48.4020 C.3    47  LYS47       0.0298
     20  CG         3.3560   65.0940   49.2760 C.3    47  LYS47       0.0038
     21  CD         4.5340   65.9130   49.7850 C.3    47  LYS47       0.0206
     22  CE         5.8910   65.3020   49.4030 C.3    47  LYS47       0.1093
     23  NZ         7.0560   66.2340   49.6090 N.3    47  LYS47      -0.1314
     24  N          4.7850   64.9460   43.0880 N.3    50  GLY50      -0.1210
     25  CA         6.1770   64.6780   43.3790 C.3    50  GLY50       0.1956
     26  C          6.3790   63.2020   43.6280 C.2    50  GLY50       0.2611
     27  O          7.2820   62.6050   43.0450 O.2    50  GLY50      -0.2717
     28  N          5.5540   62.5940   44.4830 N.am   51  LEU51      -0.1979
     29  CA         5.6910   61.1520   44.7550 C.3    51  LEU51       0.1596
     30  C          5.6620   60.3880   43.4470 C.2    51  LEU51       0.2287
     31  O          6.4580   59.4750   43.2240 O.2    51  LEU51      -0.2864
     32  CB         4.5500   60.6110   45.6380 C.3    51  LEU51       0.0297
     33  CG         4.4310   61.1620   47.0630 C.3    51  LEU51       0.0022
     34  CD1        3.0740   60.7960   47.6510 C.3    51  LEU51       0.0001
     35  CD2        5.5870   60.6400   47.9230 C.3    51  LEU51       0.0001
     36  N          6.4260   61.4240   40.5060 N.3    53  LEU53      -0.1231
     37  CA         7.6350   61.6370   39.7390 C.3    53  LEU53       0.1693
     38  C          8.8230   60.8810   40.3210 C.2    53  LEU53       0.2591
     39  O          9.6490   60.3490   39.5770 O.2    53  LEU53      -0.2718
     40  CB         7.9620   63.1220   39.6380 C.3    53  LEU53       0.0284
     41  CG         9.3000   63.3780   38.9440 C.3    53  LEU53       0.0019
     42  CD1        9.2780   62.8400   37.5320 C.3    53  LEU53       0.0001
     43  CD2        9.5810   64.8460   38.9350 C.3    53  LEU53       0.0001
     44  N          8.9050   60.8070   41.6450 N.am   54  ARG54      -0.1980
     45  CA        10.0160   60.1050   42.2810 C.3    54  ARG54       0.1597
     46  C          9.9910   58.6320   41.9060 C.2    54  ARG54       0.2287
     47  O         11.0180   58.0580   41.5320 O.2    54  ARG54      -0.2864
     48  CB         9.9510   60.2680   43.7980 C.3    54  ARG54       0.0334
     49  CG        11.2850   60.6720   44.3970 C.3    54  ARG54       0.0492
     50  CD        11.1590   60.9020   45.8920 C.3    54  ARG54       0.2205
     51  NE        10.3250   59.8760   46.5230 N.pl3  54  ARG54      -0.0865
     52  CZ        10.2370   59.6770   47.8360 C.cat  54  ARG54       0.5346
     53  NH1       10.9460   60.4310   48.6810 N.pl3  54  ARG54       0.1354
     54  NH2        9.4190   58.7340   48.3040 N.pl3  54  ARG54       0.1354
     55  N         11.1630   58.2560   38.3500 N.3    57  LEU57      -0.1231
     56  CA        12.6160   58.3740   38.2250 C.3    57  LEU57       0.1693
     57  C         13.3360   57.1520   38.7820 C.2    57  LEU57       0.2591
     58  O         14.2800   56.6520   38.1630 O.2    57  LEU57      -0.2718
     59  CB        13.0950   59.6800   38.8710 C.3    57  LEU57       0.0284
     60  CG        12.5390   60.9530   38.2090 C.3    57  LEU57       0.0019
     61  CD1       13.0640   62.1630   38.9420 C.3    57  LEU57       0.0001
     62  CD2       12.9180   61.0150   36.7510 C.3    57  LEU57       0.0001
     63  N         12.8850   56.6540   39.9290 N.am   58  ALA58      -0.1980
     64  CA        13.4840   55.4490   40.4800 C.3    58  ALA58       0.1597
     65  C         13.3960   54.3500   39.4130 C.2    58  ALA58       0.2287
     66  O         14.4000   53.7700   39.0400 O.2    58  ALA58      -0.2864
     67  CB        12.7480   55.0210   41.7250 C.3    58  ALA58       0.0319
     68  N         15.7330   54.6780   36.5810 N.3    61  ASP61      -0.1239
     69  CA        17.0700   54.3490   37.0490 C.3    61  ASP61       0.1674
     70  C         17.3490   52.8620   36.8790 C.2    61  ASP61       0.2266
     71  O         18.4000   52.4700   36.3610 O.2    61  ASP61      -0.2867
     72  CB        17.2330   54.7410   38.5280 C.3    61  ASP61       0.1410
     73  CG        17.4900   56.2410   38.7230 C.2    61  ASP61       0.3668
     74  OD1       18.0630   56.8660   37.7960 O.co2  61  ASP61      -0.2456
     75  OD2       17.1400   56.7840   39.8070 O.co2  61  ASP61      -0.2456
     76  N         13.1510   66.7050   36.8050 N.3    83  ASN83      -0.1240
     77  CA        13.4120   67.1860   38.1520 C.3    83  ASN83       0.1653
     78  C         13.2760   68.6890   38.2430 C.2    83  ASN83       0.2266
     79  O         12.8430   69.2090   39.2730 O.2    83  ASN83      -0.2867
     80  CB        14.7930   66.7570   38.6160 C.3    83  ASN83       0.1155
     81  CG        14.7770   65.3870   39.2150 C.2    83  ASN83       0.2627
     82  OD1       14.1040   65.1620   40.2240 O.2    83  ASN83      -0.2716
     83  ND2       15.5000   64.4470   38.6000 N.am   83  ASN83      -0.0877
     84  N          9.5930   69.7100   38.0600 N.3    86  LEU86      -0.1231
     85  CA         8.9520   69.6020   39.3580 C.3    86  LEU86       0.1693
     86  C          9.3770   70.8120   40.1680 C.2    86  LEU86       0.2592
     87  O          8.5600   71.4140   40.8670 O.2    86  LEU86      -0.2718
     88  CB         9.3500   68.3290   40.1020 C.3    86  LEU86       0.0284
     89  CG         8.6660   68.1660   41.4710 C.3    86  LEU86       0.0019
     90  CD1        7.1480   68.1800   41.3370 C.3    86  LEU86       0.0001
     91  CD2        9.1310   66.8760   42.1010 C.3    86  LEU86       0.0001
     92  N         10.6540   71.1760   40.0540 N.am   87  GLY87      -0.1957
     93  CA        11.1790   72.3130   40.7890 C.3    87  GLY87       0.1869
     94  C         10.4040   73.5970   40.5570 C.2    87  GLY87       0.2309
     95  O         10.1500   74.3780   41.4800 O.2    87  GLY87      -0.2863
     96  N          6.9390   73.4450   42.2610 N.3    90  ILE90      -0.1245
     97  CA         7.0020   73.7050   43.6860 C.3    90  ILE90       0.1561
     98  C          7.2040   75.1940   43.9840 C.2    90  ILE90       0.2260
     99  O          6.6920   75.7190   44.9780 O.2    90  ILE90      -0.2867
    100  CB         8.1220   72.9010   44.3120 C.3    90  ILE90       0.0252
    101  CG1        7.8460   71.4200   44.0890 C.3    90  ILE90       0.0019
    102  CG2        8.2090   73.1990   45.7990 C.3    90  ILE90       0.0019
    103  CD1        8.9240   70.5510   44.6280 C.3    90  ILE90       0.0001
    104  N          3.9740   76.8630   43.5090 N.3    93  MET93      -0.1230
    105  CA         3.0740   76.4210   44.5730 C.3    93  MET93       0.1702
    106  C          3.3050   77.2760   45.8230 C.2    93  MET93       0.2592
    107  O          2.3650   77.8290   46.3940 O.2    93  MET93      -0.2718
    108  CB         3.3070   74.9450   44.9070 C.3    93  MET93       0.0401
    109  CG         2.4550   74.4080   46.0590 C.3    93  MET93       0.0596
    110  SD         3.2330   72.9690   46.9270 S.3    93  MET93      -0.1393
    111  CE         4.6920   73.8160   47.7390 C.3    93  MET93       0.0692
    112  N          4.5650   77.3920   46.2330 N.am   94  LYS94      -0.1980
    113  CA         4.9260   78.1740   47.4030 C.3    94  LYS94       0.1596
    114  C          4.4670   79.6070   47.2720 C.2    94  LYS94       0.2287
    115  O          4.0640   80.2360   48.2490 O.2    94  LYS94      -0.2864
    116  CB         6.4360   78.0950   47.6250 C.3    94  LYS94       0.0298
    117  CG         6.8310   76.7610   48.2250 C.3    94  LYS94       0.0038
    118  CD         8.3060   76.5930   48.4880 C.3    94  LYS94       0.0206
    119  CE         8.5180   75.3010   49.2740 C.3    94  LYS94       0.1093
    120  NZ         9.9310   75.0450   49.6740 N.3    94  LYS94      -0.1314
@<TRIPOS>BOND
     1    71    70    2
     2    68    69    1
     3    62    60    1
     4    76    77    1
     5    70    69    1
     6    69    72    1
     7    42    41    1
     8    74    73   ar
     9    84    85    1
    10    77    78    1
    11    77    80    1
    12    58    57    2
    13    60    59    1
    14    60    61    1
    15    56    55    1
    16    56    57    1
    17    56    59    1
    18    78    79    2
    19    72    73    1
    20    83    81   am
    21    80    81    1
    22    73    75   ar
    23    57    63   am
    24    43    41    1
    25    41    40    1
    26    66    65    2
    27    81    82    2
    28    85    88    1
    29    85    86    1
    30    65    64    1
    31    39    38    2
    32    40    37    1
    33    37    38    1
    34    37    36    1
    35    63    64    1
    36    92    86   am
    37    92    93    1
    38    88    89    1
    39    86    87    2
    40    38    44   am
    41    64    67    1
    42    94    93    1
    43    94    95    2
    44    90    89    1
    45    89    91    1
    46    47    46    2
    47    44    45    1
    48    46    45    1
    49    96    97    1
    50    45    48    1
    51    27    26    2
    52    24    25    1
    53    31    30    2
    54    25    26    1
    55    30    29    1
    56   104   105    1
    57    26    28   am
    58    97    98    1
    59    97   100    1
    60    48    49    1
    61    13    12    1
    62    98    99    2
    63   101   100    1
    64   101   103    1
    65    14    12    1
    66   100   102    1
    67    11    10    2
    68    49    50    1
    69     9    12    1
    70     9    10    1
    71     9     8    1
    72    28    29    1
    73   105   108    1
    74   105   106    1
    75    29    32    1
    76   108   109    1
    77    10    15   am
    78    32    33    1
    79    18    17    2
    80   106   112   am
    81   106   107    2
    82    50    51    1
    83   109   110    1
    84    17    16    1
    85   112   113    1
    86    15    16    1
    87    51    52    2
    88   110   111    1
    89    16    19    1
    90    33    34    1
    91    33    35    1
    92   114   113    1
    93   114   115    2
    94   113   116    1
    95   116   117    1
    96    52    54    1
    97    52    53    1
    98     4     3    2
    99   117   118    1
   100     1     2    1
   101    19    20    1
   102   118   119    1
   103     3     2    1
   104     2     5    1
   105   119   120    1
   106    20    21    1
   107    22    23    1
   108    22    21    1
   109     7     5    1
   110     5     6    1
