@<TRIPOS>MOLECULE
tmp/1ow7A00.pdb
 113 105 0 0 0
SMALL
GASTEIGER

@<TRIPOS>ATOM
      1  N         24.4610   42.6720   22.1980 N.3     4  ARG4       -0.1245
      2  CA        25.3260   42.1520   23.2420 C.3     4  ARG4        0.1563
      3  C         26.4930   43.0620   23.5840 C.2     4  ARG4        0.2260
      4  O         27.2950   42.7480   24.4630 O.2     4  ARG4       -0.2867
      5  CB        25.8410   40.7900   22.8120 C.3     4  ARG4        0.0307
      6  CG        24.7420   39.8260   22.4210 C.3     4  ARG4        0.0489
      7  CD        23.8360   39.5230   23.5910 C.3     4  ARG4        0.2205
      8  NE        22.9310   38.4380   23.2690 N.pl3   4  ARG4       -0.0865
      9  CZ        22.2010   37.7870   24.1600 C.cat   4  ARG4        0.5346
     10  NH1       22.2550   38.1100   25.4390 N.pl3   4  ARG4        0.1354
     11  NH2       21.4380   36.7860   23.7690 N.pl3   4  ARG4        0.1354
     12  N         26.0490   37.8020   28.9760 N.3    10  TYR10      -0.1241
     13  CA        26.3930   37.0990   27.7590 C.3    10  TYR10       0.1605
     14  C         27.9200   36.9950   27.5990 C.2    10  TYR10       0.2264
     15  O         28.4290   36.0200   27.0540 O.2    10  TYR10      -0.2867
     16  CB        25.7530   37.8230   26.5680 C.3    10  TYR10       0.0534
     17  CG        26.2780   37.3920   25.2350 C.ar   10  TYR10      -0.0201
     18  CD1       27.4710   37.9170   24.7490 C.ar   10  TYR10      -0.0009
     19  CD2       25.6310   36.4090   24.4930 C.ar   10  TYR10      -0.0009
     20  CE1       28.0140   37.4770   23.5630 C.ar   10  TYR10       0.0417
     21  CE2       26.1630   35.9580   23.3020 C.ar   10  TYR10       0.0417
     22  CZ        27.3620   36.4980   22.8440 C.ar   10  TYR10       0.1957
     23  OH        27.9280   36.0690   21.6660 O.3    10  TYR10      -0.2866
     24  N         29.2100   34.2110   30.2210 N.3    13  VAL13      -0.1231
     25  CA        28.8120   32.8890   29.7770 C.3    13  VAL13       0.1692
     26  C         29.7580   32.4920   28.6540 C.2    13  VAL13       0.2592
     27  O         30.2380   31.3570   28.5970 O.2    13  VAL13      -0.2718
     28  CB        27.3900   32.9000   29.2430 C.3    13  VAL13       0.0266
     29  CG1       27.1560   31.6750   28.3850 C.3    13  VAL13       0.0020
     30  CG2       26.4150   32.9330   30.4030 C.3    13  VAL13       0.0020
     31  N         30.0220   33.4180   27.7440 N.am   14  THR14      -0.1953
     32  CA        30.9590   33.1170   26.6760 C.3    14  THR14       0.1897
     33  C         32.3160   32.7360   27.2700 C.2    14  THR14       0.2313
     34  O         32.9440   31.7700   26.8350 O.2    14  THR14      -0.2863
     35  CB        31.1550   34.3040   25.7710 C.3    14  THR14       0.1794
     36  OG1       29.9400   34.5510   25.0660 O.3    14  THR14      -0.2208
     37  CG2       32.2560   34.0410   24.7860 C.3    14  THR14       0.0378
     38  N         32.1680   29.2790   28.8460 N.3    17  VAL17      -0.1231
     39  CA        32.1390   28.2570   27.8070 C.3    17  VAL17       0.1692
     40  C         33.5180   28.1110   27.1480 C.2    17  VAL17       0.2591
     41  O         33.9370   27.0130   26.7950 O.2    17  VAL17      -0.2718
     42  CB        31.0640   28.5810   26.7450 C.3    17  VAL17       0.0266
     43  CG1       31.1610   27.6270   25.5610 C.3    17  VAL17       0.0020
     44  CG2       29.7010   28.4630   27.3820 C.3    17  VAL17       0.0020
     45  N         34.2290   29.2130   26.9760 N.am   18  LYS18      -0.1980
     46  CA        35.5520   29.1300   26.3880 C.3    18  LYS18       0.1596
     47  C         36.5310   28.4400   27.3560 C.2    18  LYS18       0.2287
     48  O         37.5140   27.8260   26.9270 O.2    18  LYS18      -0.2864
     49  CB        36.0740   30.5250   26.0600 C.3    18  LYS18       0.0298
     50  CG        35.5820   31.1310   24.7700 C.3    18  LYS18       0.0038
     51  CD        36.2960   32.4660   24.5010 C.3    18  LYS18       0.0206
     52  CE        35.9030   33.0730   23.1520 C.3    18  LYS18       0.1093
     53  NZ        35.8250   34.5740   23.1730 N.3    18  LYS18      -0.1314
     54  N         35.5990   26.1130   29.6310 N.3    20  VAL20      -0.1231
     55  CA        35.2280   24.7090   29.5840 C.3    20  VAL20       0.1692
     56  C         35.7890   24.0990   28.2970 C.2    20  VAL20       0.2591
     57  O         36.1180   22.9270   28.2560 O.2    20  VAL20      -0.2718
     58  CB        33.6920   24.5390   29.5750 C.3    20  VAL20       0.0266
     59  CG1       33.3150   23.1730   29.0350 C.3    20  VAL20       0.0020
     60  CG2       33.1420   24.7290   30.9680 C.3    20  VAL20       0.0020
     61  N         35.8900   24.8970   27.2420 N.am   21  ILE21      -0.1980
     62  CA        36.3950   24.4040   25.9690 C.3    21  ILE21       0.1595
     63  C         37.9090   24.1930   25.9360 C.2    21  ILE21       0.2287
     64  O         38.3740   23.1830   25.4170 O.2    21  ILE21      -0.2864
     65  CB        35.9850   25.3490   24.8320 C.3    21  ILE21       0.0276
     66  CG1       34.5360   25.0830   24.4450 C.3    21  ILE21       0.0022
     67  CG2       36.9000   25.1830   23.6380 C.3    21  ILE21       0.0022
     68  CD1       34.0310   26.0140   23.4060 C.3    21  ILE21       0.0001
     69  N         38.6590   21.1660   27.8990 N.3    24  SER24      -0.1217
     70  CA        38.3020   19.9590   27.1720 C.3    24  SER24       0.1889
     71  C         39.2220   19.5370   26.0420 C.2    24  SER24       0.2288
     72  O         39.5350   18.3570   25.9040 O.2    24  SER24      -0.2866
     73  CB        36.8950   20.0830   26.6340 C.3    24  SER24       0.2089
     74  OG        35.9980   20.1550   27.7150 O.3    24  SER24      -0.2183
     75  N         31.2260   19.6680   30.1250 N.3   110  HIS110     -0.1241
     76  CA        30.2770   19.8980   29.0380 C.3   110  HIS110      0.1621
     77  C         28.9120   20.2560   29.6270 C.2   110  HIS110      0.2264
     78  O         28.2720   21.1930   29.1860 O.2   110  HIS110     -0.2867
     79  CB        30.1700   18.6510   28.1540 C.3   110  HIS110      0.0745
     80  CG        29.1520   18.7690   27.0600 C.ar  110  HIS110      0.0817
     81  ND1       29.4740   19.1130   25.7600 N.ar  110  HIS110     -0.2268
     82  CD2       27.7990   18.6240   27.0840 C.ar  110  HIS110      0.1154
     83  CE1       28.3700   19.1760   25.0390 C.ar  110  HIS110      0.1986
     84  NE2       27.3420   18.8850   25.8140 N.ar  110  HIS110     -0.2212
     85  N         28.8100   23.7920   30.7540 N.3   113  ALA113     -0.1231
     86  CA        28.6350   24.7080   29.6360 C.3   113  ALA113      0.1694
     87  C         27.1990   24.7250   29.1200 C.2   113  ALA113      0.2591
     88  O         26.6700   25.7870   28.8020 O.2   113  ALA113     -0.2718
     89  CB        29.5870   24.3340   28.5060 C.3   113  ALA113      0.0304
     90  N         26.5750   23.5520   29.0080 N.am  114  VAL114     -0.1980
     91  CA        25.1980   23.4740   28.5160 C.3   114  VAL114      0.1595
     92  C         24.3030   24.2200   29.4860 C.2   114  VAL114      0.2287
     93  O         23.4190   24.9590   29.0740 O.2   114  VAL114     -0.2864
     94  CB        24.7040   22.0040   28.3840 C.3   114  VAL114      0.0276
     95  CG1       23.1940   21.9570   28.3550 C.3   114  VAL114      0.0022
     96  CG2       25.2510   21.3870   27.1130 C.3   114  VAL114      0.0022
     97  N         24.6530   28.0410   29.2430 N.3   117  LYS117     -0.1245
     98  CA        23.9650   28.4720   28.0290 C.3   117  LYS117      0.1561
     99  C         22.4720   28.5680   28.3280 C.2   117  LYS117      0.2260
    100  O         21.8020   29.4920   27.8900 O.2   117  LYS117     -0.2867
    101  CB        24.1970   27.4570   26.9080 C.3   117  LYS117      0.0271
    102  CG        24.1910   28.0590   25.5060 C.3   117  LYS117      0.0035
    103  CD        22.8660   28.7510   25.1510 C.3   117  LYS117      0.0206
    104  CE        22.9100   29.3880   23.7640 C.3   117  LYS117      0.1093
    105  NZ        21.5500   29.8570   23.3790 N.3   117  LYS117     -0.1314
    106  N         21.8550   31.6190   30.2410 N.3   120  LEU120     -0.1245
    107  CA        21.8790   32.7770   29.3590 C.3   120  LEU120      0.1561
    108  C         20.5130   32.8650   28.6780 C.2   120  LEU120      0.2260
    109  O         20.0040   33.9500   28.4390 O.2   120  LEU120     -0.2867
    110  CB        22.9590   32.6350   28.2860 C.3   120  LEU120      0.0270
    111  CG        23.4550   33.8900   27.5580 C.3   120  LEU120      0.0019
    112  CD1       23.5010   33.5860   26.1100 C.3   120  LEU120      0.0001
    113  CD2       22.5800   35.0880   27.8060 C.3   120  LEU120      0.0001
@<TRIPOS>BOND
     1    23    22    1
     2     1     2    1
     3     6     5    1
     4     6     7    1
     5     5     2    1
     6    22    21   ar
     7    22    20   ar
     8    52    53    1
     9    52    51    1
    10     2     3    1
    11     8     7    1
    12     8     9    2
    13    21    19   ar
    14   105   104    1
    15    68    66    1
    16    20    18   ar
    17     3     4    2
    18    67    65    1
    19   104   103    1
    20    11     9    1
    21     9    10    1
    22    66    65    1
    23    19    17   ar
    24    51    50    1
    25    18    17   ar
    26    50    49    1
    27    37    35    1
    28    65    62    1
    29    83    81   ar
    30    83    84   ar
    31    36    35    1
    32   103   102    1
    33    17    16    1
    34    64    63    2
    35   102   101    1
    36    43    42    1
    37    81    80   ar
    38    35    32    1
    39    84    82   ar
    40    72    71    2
    41    63    62    1
    42    62    61    1
    43    71    70    1
    44    49    46    1
    45   112   111    1
    46    46    45    1
    47    46    47    1
    48    16    13    1
    49    73    70    1
    50    73    74    1
    51    32    33    1
    52    32    31    1
    53    42    44    1
    54    42    39    1
    55    41    40    2
    56    34    33    2
    57   101    98    1
    58    48    47    2
    59    45    40   am
    60    15    14    2
    61    80    82   ar
    62    80    79    1
    63    96    94    1
    64    40    39    1
    65    70    69    1
    66    61    56   am
    67   111   113    1
    68   111   110    1
    69    14    13    1
    70    31    26   am
    71    13    12    1
    72    39    38    1
    73   100    99    2
    74    98    99    1
    75    98    97    1
    76    79    76    1
    77    57    56    2
    78   110   107    1
    79    56    55    1
    80    95    94    1
    81    94    91    1
    82    29    28    1
    83   109   108    2
    84    89    86    1
    85    91    90    1
    86    91    92    1
    87    27    26    2
    88    26    25    1
    89   108   107    1
    90    88    87    2
    91    90    87   am
    92    59    58    1
    93    76    77    1
    94    76    75    1
    95    93    92    2
    96    87    86    1
    97    78    77    2
    98    28    25    1
    99    28    30    1
   100   107   106    1
   101    58    55    1
   102    58    60    1
   103    55    54    1
   104    86    85    1
   105    25    24    1
