@<TRIPOS>MOLECULE
tmp/1owdA00.pdb
 172 172 0 0 0
SMALL
GASTEIGER

@<TRIPOS>ATOM
      1  N         23.0010    9.5190   24.8010 N.3    46  HIS46      -0.1241
      2  CA        24.1840    9.8540   25.6110 C.3    46  HIS46       0.1621
      3  C         24.3600    8.9770   26.8510 C.2    46  HIS46       0.2264
      4  O         25.4340    8.9650   27.4580 O.2    46  HIS46      -0.2867
      5  CB        24.2210   11.3430   26.0230 C.3    46  HIS46       0.0745
      6  CG        23.3220   11.7030   27.1680 C.ar   46  HIS46       0.0817
      7  ND1       22.1100   12.3360   26.9980 N.ar   46  HIS46      -0.2268
      8  CD2       23.4870   11.5670   28.5070 C.ar   46  HIS46       0.1154
      9  CE1       21.5710   12.5790   28.1780 C.ar   46  HIS46       0.1986
     10  NE2       22.3860   12.1230   29.1110 N.ar   46  HIS46      -0.2212
     11  N         26.3330    5.7840   24.7760 N.3    49  ILE49      -0.1231
     12  CA        27.4230    6.0140   23.8220 C.3    49  ILE49       0.1692
     13  C         28.8250    5.6210   24.3110 C.2    49  ILE49       0.2592
     14  O         29.6440    5.1750   23.5140 O.2    49  ILE49      -0.2718
     15  CB        27.4050    7.5000   23.3190 C.3    49  ILE49       0.0266
     16  CG1       28.3080    7.6620   22.0990 C.3    49  ILE49       0.0019
     17  CG2       27.8620    8.4580   24.4180 C.3    49  ILE49       0.0020
     18  CD1       27.7870    6.9950   20.8430 C.3    49  ILE49       0.0001
     19  N         29.1000    5.7680   25.6120 N.am   50  ASP50      -0.1960
     20  CA        30.4070    5.3910   26.1670 C.3    50  ASP50       0.1840
     21  C         30.5910    3.8830   26.4070 C.2    50  ASP50       0.2622
     22  O         31.7200    3.3980   26.4650 O.2    50  ASP50      -0.2715
     23  CB        30.6840    6.1290   27.4740 C.3    50  ASP50       0.1450
     24  CG        30.8810    7.6110   27.2740 C.2    50  ASP50       0.3671
     25  OD1       31.6940    7.9940   26.4060 O.co2  50  ASP50      -0.2456
     26  OD2       30.2350    8.3930   27.9940 O.co2  50  ASP50      -0.2456
     27  N         29.4960    3.1470   26.5890 N.am   51  TYR51      -0.1974
     28  CA        29.5930    1.6940   26.7710 C.3    51  TYR51       0.1639
     29  C         28.4840    1.1130   25.9140 C.2    51  TYR51       0.2290
     30  O         27.4740    0.6580   26.4300 O.2    51  TYR51      -0.2864
     31  CB        29.3730    1.2650   28.2250 C.3    51  TYR51       0.0560
     32  CG        30.2720    1.9260   29.2400 C.ar   51  TYR51      -0.0198
     33  CD1       29.9270    3.1510   29.8090 C.ar   51  TYR51      -0.0009
     34  CD2       31.4750    1.3380   29.6190 C.ar   51  TYR51      -0.0009
     35  CE1       30.7530    3.7730   30.7300 C.ar   51  TYR51       0.0417
     36  CE2       32.3150    1.9530   30.5430 C.ar   51  TYR51       0.0417
     37  CZ        31.9460    3.1700   31.0940 C.ar   51  TYR51       0.1957
     38  OH        32.7630    3.7910   32.0120 O.3    51  TYR51      -0.2866
     39  N         23.1710   18.6090   23.3660 N.3    94  HIS94      -0.1241
     40  CA        23.3070   17.2690   22.8020 C.3    94  HIS94       0.1621
     41  C         22.3800   17.1740   21.5910 C.2    94  HIS94       0.2264
     42  O         21.2690   17.6980   21.6100 O.2    94  HIS94      -0.2867
     43  CB        22.9450   16.2410   23.8720 C.3    94  HIS94       0.0745
     44  CG        23.8760   16.2630   25.0470 C.ar   94  HIS94       0.0817
     45  ND1       24.9880   15.4510   25.1320 N.ar   94  HIS94      -0.2268
     46  CD2       23.9340   17.0890   26.1170 C.ar   94  HIS94       0.1154
     47  CE1       25.6890   15.7770   26.2010 C.ar   94  HIS94       0.1986
     48  NE2       25.0710   16.7700   26.8160 N.ar   94  HIS94      -0.2212
     49  N         13.1310   20.8280   39.3820 N.3   192  ASP192     -0.1225
     50  CA        13.6160   20.5270   38.0360 C.3   192  ASP192      0.1805
     51  C         14.2070   19.1030   37.9800 C.2   192  ASP192      0.2598
     52  O         14.3020   18.4370   39.0130 O.2   192  ASP192     -0.2718
     53  CB        14.6550   21.6190   37.6970 C.3   192  ASP192      0.1424
     54  CG        15.3810   21.3980   36.3870 C.2   192  ASP192      0.3668
     55  OD1       14.7690   20.9430   35.3900 O.co2 192  ASP192     -0.2456
     56  OD2       16.5850   21.7320   36.3590 O.co2 192  ASP192     -0.2456
     57  N         14.5380   18.6080   36.7830 N.am  193  SER193     -0.1938
     58  CA        15.1600   17.2920   36.6850 C.3   193  SER193      0.2055
     59  C         16.6680   17.5130   36.8810 C.2   193  SER193      0.2643
     60  O         17.1380   18.6650   36.9020 O.2   193  SER193     -0.2714
     61  CB        14.8570   16.6190   35.3390 C.3   193  SER193      0.2130
     62  OG        15.1840   17.4320   34.2280 O.3   193  SER193     -0.2179
     63  N         17.4330   16.4370   37.0280 N.am  194  CYS194     -0.1953
     64  CA        18.8560   16.5980   37.2780 C.3   194  CYS194      0.1843
     65  C         19.6240   15.3400   36.8830 C.2   194  CYS194      0.2625
     66  O         19.0160   14.3280   36.5640 O.2   194  CYS194     -0.2714
     67  CB        19.0390   16.9020   38.7680 C.3   194  CYS194      0.0997
     68  SG        20.6550   17.5570   39.2650 S.3   194  CYS194     -0.0797
     69  N         20.9580   15.4090   36.8910 N.am  195  GLN195     -0.1963
     70  CA        21.7770   14.2470   36.5380 C.3   195  GLN195      0.1733
     71  C         21.2290   13.0070   37.2320 C.2   195  GLN195      0.2616
     72  O         21.0820   12.9770   38.4440 O.2   195  GLN195     -0.2715
     73  CB        23.2410   14.4570   36.9490 C.3   195  GLN195      0.0408
     74  CG        24.1370   13.2610   36.6380 C.3   195  GLN195      0.0908
     75  CD        25.5870   13.4830   37.0310 C.2   195  GLN195      0.2608
     76  OE1       25.8960   13.7030   38.1840 O.2   195  GLN195     -0.2717
     77  NE2       26.4800   13.4140   36.0560 N.am  195  GLN195     -0.0878
     78  N         20.9430   11.9800   36.4430 N.am  196  GLY196     -0.1955
     79  CA        20.3800   10.7600   36.9910 C.3   196  GLY196      0.1869
     80  C         18.9920   10.5370   36.4140 C.2   196  GLY196      0.2309
     81  O         18.4920    9.4130   36.3970 O.2   196  GLY196     -0.2863
     82  N         18.2640   11.7100   33.2040 N.3   198  SER198     -0.1217
     83  CA        18.4130   11.6420   31.7470 C.3   198  SER198      0.1889
     84  C         17.7890   10.3940   31.1290 C.2   198  SER198      0.2288
     85  O         17.8130    9.3180   31.7050 O.2   198  SER198     -0.2866
     86  CB        19.8900   11.7130   31.3470 C.3   198  SER198      0.2089
     87  OG        20.4490   12.9850   31.6370 O.3   198  SER198     -0.2183
     88  N         14.3760   13.4860   28.6580 N.3   216  VAL216     -0.1231
     89  CA        15.3610   14.2920   29.3700 C.3   216  VAL216      0.1692
     90  C         16.7000   14.1660   28.6560 C.2   216  VAL216      0.2593
     91  O         17.2010   13.0670   28.4620 O.2   216  VAL216     -0.2718
     92  CB        15.5150   13.8230   30.8420 C.3   216  VAL216      0.0266
     93  CG1       16.5770   14.6740   31.5610 C.3   216  VAL216      0.0020
     94  CG2       14.1800   13.9220   31.5650 C.3   216  VAL216      0.0020
     95  N         17.2710   15.2990   28.2710 N.am  217  SER217     -0.1938
     96  CA        18.5380   15.3200   27.5560 C.3   217  SER217      0.2055
     97  C         19.6410   16.1240   28.2460 C.2   217  SER217      0.2643
     98  O         20.6350   15.5470   28.6570 O.2   217  SER217     -0.2714
     99  CB        18.3230   15.8600   26.1370 C.3   217  SER217      0.2130
    100  OG        19.5430   15.9460   25.4300 O.3   217  SER217     -0.2179
    101  N         19.4760   17.4470   28.3650 N.am  218  TRP218     -0.1959
    102  CA        20.5150   18.2730   29.0040 C.3   218  TRP218      0.1771
    103  C         20.0470   19.5600   29.6790 C.2   218  TRP218      0.2620
    104  O         18.8740   19.8970   29.6400 O.2   218  TRP218     -0.2715
    105  CB        21.6190   18.6430   27.9980 C.3   218  TRP218      0.0590
    106  CG        21.1430   19.4380   26.7910 C.ar  218  TRP218      0.0006
    107  CD1       20.5830   18.9410   25.6530 C.ar  218  TRP218      0.0946
    108  CD2       21.2120   20.8610   26.6120 C.ar  218  TRP218      0.0152
    109  NE1       20.3050   19.9590   24.7730 N.ar  218  TRP218     -0.2442
    110  CE2       20.6800   21.1480   25.3340 C.ar  218  TRP218      0.0810
    111  CE3       21.6700   21.9220   27.4090 C.ar  218  TRP218      0.0012
    112  CZ2       20.5960   22.4600   24.8250 C.ar  218  TRP218      0.0191
    113  CZ3       21.5870   23.2350   26.9020 C.ar  218  TRP218      0.0001
    114  CH2       21.0550   23.4840   25.6210 C.ar  218  TRP218      0.0015
    115  N         21.0030   20.2650   30.2860 N.am  219  GLY219     -0.1954
    116  CA        20.7370   21.5230   30.9730 C.3   219  GLY219      0.1869
    117  C         21.9260   22.0510   31.7800 C.2   219  GLY219      0.2309
    118  O         22.7810   21.2840   32.1840 O.2   219  GLY219     -0.2863
    119  N         23.3710   23.0500   35.0030 N.3   221  GLY221     -0.1210
    120  CA        23.0910   22.8780   36.4160 C.3   221  GLY221      0.1956
    121  C         21.7430   22.2140   36.6180 C.2   221  GLY221      0.2612
    122  O         21.2160   21.5720   35.7060 O.2   221  GLY221     -0.2717
    123  N         21.1890   22.3670   37.8170 N.am  222  CYS222     -0.1956
    124  CA        19.8870   21.8090   38.1490 C.3   222  CYS222      0.1843
    125  C         19.0770   22.8440   38.9210 C.2   222  CYS222      0.2625
    126  O         19.5010   23.3240   39.9610 O.2   222  CYS222     -0.2714
    127  CB        20.0340   20.5280   38.9740 C.3   222  CYS222      0.0997
    128  SG        20.8870   19.1930   38.0800 S.3   222  CYS222     -0.0797
    129  N         17.9130   23.1890   38.3730 N.am  223  ALA223     -0.1977
    130  CA        17.0090   24.1640   38.9720 C.3   223  ALA223      0.1597
    131  C         17.6550   25.5440   39.1370 C.2   223  ALA223      0.2287
    132  O         17.3820   26.2460   40.0900 O.2   223  ALA223     -0.2864
    133  CB        16.5180   23.6470   40.3190 C.3   223  ALA223      0.0319
    134  N         17.7670   28.7680   33.4810 N.3   227  LYS227     -0.1231
    135  CA        18.4630   27.6150   32.9180 C.3   227  LYS227      0.1678
    136  C         17.5030   26.4240   32.8980 C.2   227  LYS227      0.2434
    137  O         17.5910   25.5200   33.7170 O.2   227  LYS227     -0.2733
    138  CB        19.7090   27.2920   33.7430 C.3   227  LYS227      0.0284
    139  CG        20.7120   28.4390   33.7950 C.3   227  LYS227      0.0035
    140  CD        21.1150   28.8880   32.3880 C.3   227  LYS227      0.0206
    141  CE        22.0270   30.1110   32.4190 C.3   227  LYS227      0.1093
    142  NZ        22.3940   30.5890   31.0450 N.3   227  LYS227     -0.1314
    143  N         16.5650   26.4240   31.9380 N.am  228  PRO228     -0.2718
    144  CA        15.5670   25.3590   31.7870 C.3   228  PRO228      0.1535
    145  C         16.1660   23.9900   31.4810 C.2   228  PRO228      0.2599
    146  O         17.3460   23.8710   31.1460 O.2   228  PRO228     -0.2715
    147  CB        14.6980   25.8720   30.6270 C.3   228  PRO228      0.0310
    148  CG        14.8720   27.3900   30.7140 C.3   228  PRO228      0.0237
    149  CD        16.3730   27.4390   30.8870 C.3   228  PRO228      0.0939
    150  N         15.3430   22.9590   31.6240 N.am  229  GLY229     -0.1941
    151  CA        15.7840   21.6210   31.2920 C.3   229  GLY229      0.2014
    152  C         15.4930   21.5360   29.8030 C.2   229  GLY229      0.2639
    153  O         14.5010   22.1110   29.3490 O.2   229  GLY229     -0.2714
    154  N         16.3530   20.8500   29.0500 N.am  230  VAL230     -0.1963
    155  CA        16.1990   20.7060   27.6010 C.3   230  VAL230      0.1727
    156  C         15.8510   19.2540   27.3010 C.2   230  VAL230      0.2616
    157  O         16.4710   18.3390   27.8210 O.2   230  VAL230     -0.2715
    158  CB        17.5070   21.1120   26.8550 C.3   230  VAL230      0.0290
    159  CG1       17.2870   21.1050   25.3590 C.3   230  VAL230      0.0023
    160  CG2       17.9570   22.4920   27.3060 C.3   230  VAL230      0.0023
    161  N         14.8540   19.0460   26.4520 N.am  231  TYR231     -0.1974
    162  CA        14.3860   17.6950   26.1430 C.3   231  TYR231      0.1639
    163  C         14.3360   17.4280   24.6360 C.2   231  TYR231      0.2290
    164  O         14.1160   18.3470   23.8500 O.2   231  TYR231     -0.2864
    165  CB        12.9810   17.5220   26.7370 C.3   231  TYR231      0.0560
    166  CG        12.8880   17.7160   28.2410 C.ar  231  TYR231     -0.0198
    167  CD1       12.7890   16.6130   29.0970 C.ar  231  TYR231     -0.0009
    168  CD2       12.8960   18.9940   28.8120 C.ar  231  TYR231     -0.0009
    169  CE1       12.6940   16.7680   30.4760 C.ar  231  TYR231      0.0417
    170  CE2       12.8000   19.1630   30.2070 C.ar  231  TYR231      0.0417
    171  CZ        12.6960   18.0350   31.0270 C.ar  231  TYR231      0.1957
    172  OH        12.5640   18.1660   32.3890 O.3   231  TYR231     -0.2866
@<TRIPOS>BOND
     1    18    16    1
     2    41    42    2
     3    41    40    1
     4    16    15    1
     5    40    39    1
     6    40    43    1
     7    15    12    1
     8    15    17    1
     9    14    13    2
    10    12    13    1
    11    12    11    1
    12   164   163    2
    13    43    44    1
    14    13    19   am
    15   163   162    1
    16   109   110   ar
    17   109   107   ar
    18     1     2    1
    19   112   110   ar
    20   112   114   ar
    21    44    45   ar
    22    44    46   ar
    23    45    47   ar
    24   110   108   ar
    25   159   158    1
    26   100    99    1
    27     2     5    1
    28     2     3    1
    29    19    20    1
    30   114   113   ar
    31   107   106   ar
    32    29    30    2
    33    29    28    1
    34     5     6    1
    35    46    48   ar
    36    99    96    1
    37   162   161    1
    38   162   165    1
    39    20    21    1
    40    20    23    1
    41    47    48   ar
    42    25    24   ar
    43    21    22    2
    44    21    27   am
    45   161   156   am
    46    27    28    1
    47   108   106   ar
    48   108   111   ar
    49   165   166    1
    50    28    31    1
    51   106   105    1
    52     3     4    2
    53   158   160    1
    54   158   155    1
    55   113   111   ar
    56     7     6   ar
    57     7     9   ar
    58     6     8   ar
    59    24    23    1
    60    24    26   ar
    61   156   155    1
    62   156   157    2
    63    96    97    1
    64    96    95    1
    65   155   154    1
    66   105   102    1
    67     9    10   ar
    68    31    32    1
    69   166   168   ar
    70   166   167   ar
    71    97   101   am
    72    97    98    2
    73    95    90   am
    74   101   102    1
    75    91    90    2
    76     8    10   ar
    77    90    89    1
    78    88    89    1
    79   168   170   ar
    80   102   103    1
    81   154   152   am
    82   167   169   ar
    83    32    34   ar
    84    32    33   ar
    85   153   152    2
    86    89    92    1
    87    34    36   ar
    88   104   103    2
    89   103   115   am
    90   152   151    1
    91    33    35   ar
    92   170   171   ar
    93   115   116    1
    94   169   171   ar
    95    36    37   ar
    96   147   148    1
    97   147   144    1
    98   148   149    1
    99    35    37   ar
   100    92    93    1
   101    92    94    1
   102   149   143    1
   103   116   117    1
   104   171   172    1
   105   142   141    1
   106    37    38    1
   107    84    85    2
   108    84    83    1
   109   146   145    2
   110   151   150    1
   111    86    87    1
   112    86    83    1
   113   145   150   am
   114   145   144    1
   115    83    82    1
   116   117   118    2
   117   144   143    1
   118   143   136   am
   119   140   141    1
   120   140   139    1
   121   136   135    1
   122   136   137    2
   123   135   134    1
   124   135   138    1
   125   138   139    1
   126    62    61    1
   127   119   120    1
   128    61    58    1
   129    55    54   ar
   130   122   121    2
   131    77    75   am
   132    56    54   ar
   133    54    53    1
   134    81    80    2
   135    80    79    1
   136   120   121    1
   137    78    79    1
   138    78    71   am
   139    70    69    1
   140    70    73    1
   141    70    71    1
   142    66    65    2
   143   121   123   am
   144    74    73    1
   145    74    75    1
   146    58    57    1
   147    58    59    1
   148    57    51   am
   149    59    60    2
   150    59    63   am
   151    65    69   am
   152    65    64    1
   153    63    64    1
   154    75    76    2
   155    71    72    2
   156    64    67    1
   157    53    50    1
   158   123   124    1
   159    51    50    1
   160    51    52    2
   161    50    49    1
   162   128   127    1
   163   128    68    1
   164   124   125    1
   165   124   127    1
   166   129   125   am
   167   129   130    1
   168    67    68    1
   169   125   126    2
   170   130   131    1
   171   130   133    1
   172   131   132    2
