@<TRIPOS>MOLECULE
tmp/1owhA00.pdb
 172 171 0 0 0
SMALL
GASTEIGER

@<TRIPOS>ATOM
      1  N         22.9510    9.5020   24.9040 N.3    46  HIS46      -0.1226
      2  CA        24.1230    9.8860   25.7820 C.3    46  HIS46       0.1752
      3  C         24.2840    8.9580   27.0010 C.2    46  HIS46       0.2592
      4  O         25.3640    8.8630   27.5670 O.2    46  HIS46      -0.2718
      5  CB        24.1190   11.3900   26.2230 C.3    46  HIS46       0.0759
      6  CG        23.2700   11.7270   27.4280 C.ar   46  HIS46       0.0818
      7  ND1       22.1760   12.5700   27.3410 N.ar   46  HIS46      -0.2268
      8  CD2       23.4300   11.4380   28.7430 C.ar   46  HIS46       0.1154
      9  CE1       21.6850   12.7750   28.5660 C.ar   46  HIS46       0.1986
     10  NE2       22.4370   12.1000   29.4310 N.ar   46  HIS46      -0.2212
     11  N         23.2440    8.2460   27.4120 N.am   47  CYS47      -0.2023
     12  CA        23.3090    7.3700   28.5830 C.3    47  CYS47       0.1398
     13  C         24.1680    6.1150   28.2020 C.3    47  CYS47       0.2045
     14  O         24.4800    5.4660   29.2020 O.3    47  CYS47      -0.2185
     15  CB        21.8900    6.9060   28.9300 C.3    47  CYS47       0.0930
     16  SG        20.7580    8.2110   29.5790 S.3    47  CYS47      -0.0802
     17  N         26.3740    5.8560   25.0160 N.3    49  ILE49      -0.1231
     18  CA        27.3500    5.9870   23.9160 C.3    49  ILE49       0.1692
     19  C         28.7770    5.5500   24.3980 C.2    49  ILE49       0.2592
     20  O         29.5600    5.1080   23.5460 O.2    49  ILE49      -0.2718
     21  CB        27.3680    7.5330   23.3870 C.3    49  ILE49       0.0266
     22  CG1       28.2400    7.6950   22.1430 C.3    49  ILE49       0.0019
     23  CG2       27.7470    8.4270   24.5630 C.3    49  ILE49       0.0020
     24  CD1       27.7510    7.0110   20.8610 C.3    49  ILE49       0.0001
     25  N         29.1720    5.6980   25.6590 N.am   50  ASP50      -0.1974
     26  CA        30.5280    5.4190   26.1330 C.3    50  ASP50       0.1709
     27  C         30.6300    3.9220   26.5520 C.2    50  ASP50       0.2293
     28  O         31.7570    3.4850   26.7750 O.2    50  ASP50      -0.2864
     29  CB        30.9450    6.2400   27.3540 C.3    50  ASP50       0.1436
     30  CG        31.0690    7.7500   27.0450 C.2    50  ASP50       0.3671
     31  OD1       31.0610    8.1620   25.9100 O.co2  50  ASP50      -0.2456
     32  OD2       31.0380    8.5090   27.9830 O.co2  50  ASP50      -0.2456
     33  N         24.0110   11.2720   16.2920 N.3    87  TYR87      -0.1241
     34  CA        24.1780   11.7860   17.6810 C.3    87  TYR87       0.1605
     35  C         25.5140   12.5800   17.7950 C.2    87  TYR87       0.2264
     36  O         26.6230   12.2330   17.2670 O.2    87  TYR87      -0.2867
     37  CB        24.3310   10.6520   18.7330 C.3    87  TYR87       0.0534
     38  CG        24.8040   11.1120   20.1040 C.ar   87  TYR87      -0.0201
     39  CD1       26.1320   10.9380   20.5260 C.ar   87  TYR87      -0.0009
     40  CD2       23.9370   11.7720   20.9570 C.ar   87  TYR87      -0.0009
     41  CE1       26.5790   11.4520   21.7890 C.ar   87  TYR87       0.0417
     42  CE2       24.3560   12.2630   22.2150 C.ar   87  TYR87       0.0417
     43  CZ        25.6480   12.1120   22.6250 C.ar   87  TYR87       0.1957
     44  OH        26.0160   12.6130   23.8580 O.3    87  TYR87      -0.2866
     45  N         23.1680   18.5530   23.3650 N.3    94  HIS94      -0.1241
     46  CA        23.3450   17.2300   22.8480 C.3    94  HIS94       0.1621
     47  C         22.3560   17.0730   21.6240 C.2    94  HIS94       0.2264
     48  O         21.1840   17.4550   21.6950 O.2    94  HIS94      -0.2867
     49  CB        23.0360   16.2260   23.9720 C.3    94  HIS94       0.0745
     50  CG        24.0790   16.1720   25.0500 C.ar   94  HIS94       0.0817
     51  ND1       24.9100   15.0860   25.2220 N.ar   94  HIS94      -0.2268
     52  CD2       24.4460   17.0870   25.9770 C.ar   94  HIS94       0.1154
     53  CE1       25.7510   15.3360   26.2150 C.ar   94  HIS94       0.1986
     54  NE2       25.4910   16.5400   26.6900 N.ar   94  HIS94      -0.2212
     55  N         13.1450   20.7100   39.1290 N.3   192  ASP192     -0.1225
     56  CA        13.6880   20.4210   37.7850 C.3   192  ASP192      0.1805
     57  C         14.0740   18.9540   37.7310 C.2   192  ASP192      0.2598
     58  O         14.1150   18.3140   38.8080 O.2   192  ASP192     -0.2718
     59  CB        14.9710   21.2700   37.6060 C.3   192  ASP192      0.1424
     60  CG        15.4330   21.3910   36.1310 C.2   192  ASP192      0.3668
     61  OD1       14.8270   20.9760   35.1290 O.co2 192  ASP192     -0.2456
     62  OD2       16.5030   22.0550   35.9340 O.co2 192  ASP192     -0.2456
     63  N         14.3910   18.4500   36.5320 N.am  193  SER193     -0.1938
     64  CA        15.1600   17.1950   36.5240 C.3   193  SER193      0.2055
     65  C         16.6700   17.4280   36.7750 C.2   193  SER193      0.2643
     66  O         17.1140   18.6060   36.8780 O.2   193  SER193     -0.2714
     67  CB        14.9300   16.5570   35.1440 C.3   193  SER193      0.2130
     68  OG        15.0770   17.3730   33.9570 O.3   193  SER193     -0.2179
     69  N         17.5210   16.4090   36.9100 N.am  194  CYS194     -0.1953
     70  CA        18.8980   16.6510   37.2950 C.3   194  CYS194      0.1843
     71  C         19.5600   15.2920   36.8750 C.2   194  CYS194      0.2625
     72  O         18.9610   14.4490   36.2200 O.2   194  CYS194     -0.2714
     73  CB        19.0090   16.9260   38.8190 C.3   194  CYS194      0.0997
     74  SG        20.6480   17.5460   39.3850 S.3   194  CYS194     -0.0797
     75  N         20.8760   15.3290   37.0500 N.am  195  GLN195     -0.1963
     76  CA        21.6690   14.1680   36.6900 C.3   195  GLN195      0.1733
     77  C         21.0980   12.8640   37.2870 C.2   195  GLN195      0.2613
     78  O         20.8050   12.8120   38.4650 O.2   195  GLN195     -0.2715
     79  CB        23.0950   14.4400   37.1870 C.3   195  GLN195      0.0408
     80  CG        24.0510   13.2290   36.9810 C.3   195  GLN195      0.0908
     81  CD        25.5090   13.6770   37.0970 C.2   195  GLN195      0.2608
     82  OE1       25.9180   14.1320   38.1070 O.2   195  GLN195     -0.2717
     83  NE2       26.2470   13.5740   36.0140 N.am  195  GLN195     -0.0878
     84  N         20.9840   11.8320   36.4590 N.am  196  GLY196     -0.2012
     85  CA        20.3150   10.6230   36.8960 C.3   196  GLY196      0.1506
     86  C         18.9040   10.5350   36.3280 C.3   196  GLY196      0.2054
     87  O         18.3200    9.3990   36.1370 O.3   196  GLY196     -0.2184
     88  N         18.2050   11.5890   33.1290 N.3   198  SER198     -0.1217
     89  CA        18.3120   11.5660   31.6900 C.3   198  SER198      0.1889
     90  C         17.6830   10.3650   31.0700 C.2   198  SER198      0.2288
     91  O         17.6200    9.3510   31.7260 O.2   198  SER198     -0.2866
     92  CB        19.7700   11.6430   31.1680 C.3   198  SER198      0.2089
     93  OG        20.4010   12.8230   31.5150 O.3   198  SER198     -0.2183
     94  N         14.2050   13.4860   28.6580 N.3   216  VAL216     -0.1231
     95  CA        15.2260   14.2930   29.3830 C.3   216  VAL216      0.1692
     96  C         16.5770   14.2170   28.6970 C.2   216  VAL216      0.2593
     97  O         17.1480   13.1020   28.4670 O.2   216  VAL216     -0.2718
     98  CB        15.3530   13.8850   30.9560 C.3   216  VAL216      0.0266
     99  CG1       16.4240   14.8110   31.6410 C.3   216  VAL216      0.0020
    100  CG2       13.9840   13.9560   31.6800 C.3   216  VAL216      0.0020
    101  N         17.1970   15.3340   28.3270 N.am  217  SER217     -0.1938
    102  CA        18.4100   15.3300   27.5300 C.3   217  SER217      0.2055
    103  C         19.5380   16.1430   28.1720 C.2   217  SER217      0.2643
    104  O         20.6210   15.5680   28.4350 O.2   217  SER217     -0.2714
    105  CB        18.1860   15.8620   26.0960 C.3   217  SER217      0.2130
    106  OG        19.4170   15.7580   25.2780 O.3   217  SER217     -0.2179
    107  N         19.3680   17.4550   28.4020 N.am  218  TRP218     -0.1959
    108  CA        20.4350   18.3080   28.9470 C.3   218  TRP218      0.1771
    109  C         20.0290   19.5950   29.6070 C.2   218  TRP218      0.2620
    110  O         18.8190   19.8800   29.5710 O.2   218  TRP218     -0.2715
    111  CB        21.4380   18.6200   27.8460 C.3   218  TRP218      0.0590
    112  CG        20.9440   19.4580   26.6500 C.ar  218  TRP218      0.0006
    113  CD1       20.3770   19.0000   25.4830 C.ar  218  TRP218      0.0946
    114  CD2       21.0470   20.8990   26.4990 C.ar  218  TRP218      0.0152
    115  NE1       20.1260   20.0280   24.6280 N.ar  218  TRP218     -0.2442
    116  CE2       20.5280   21.2110   25.2120 C.ar  218  TRP218      0.0810
    117  CE3       21.5170   21.9360   27.3050 C.ar  218  TRP218      0.0012
    118  CZ2       20.4620   22.5200   24.7140 C.ar  218  TRP218      0.0191
    119  CZ3       21.4610   23.2620   26.8090 C.ar  218  TRP218      0.0001
    120  CH2       20.9420   23.5320   25.5260 C.ar  218  TRP218      0.0015
    121  N         20.9640   20.2180   30.3180 N.am  219  GLY219     -0.1940
    122  CA        20.6820   21.5190   30.9260 C.3   219  GLY219      0.2014
    123  C         21.9210   22.0500   31.6120 C.2   219  GLY219      0.2639
    124  O         22.8470   21.2620   31.9280 O.2   219  GLY219     -0.2714
    125  N         21.9700   23.3610   31.8330 N.am  220  ARG220     -0.1963
    126  CA        23.1020   23.9650   32.5650 C.3   220  ARG220      0.1729
    127  C         22.8300   23.8730   34.0970 C.2   220  ARG220      0.2617
    128  O         21.9110   24.5940   34.6690 O.2   220  ARG220     -0.2715
    129  CB        23.2710   25.4530   32.1650 C.3   220  ARG220      0.0348
    130  CG        24.3150   26.1960   33.0220 C.3   220  ARG220      0.0492
    131  CD        25.7350   25.8520   32.8900 C.3   220  ARG220      0.2205
    132  NE        26.1640   24.6510   33.6050 N.pl3 220  ARG220     -0.0865
    133  CZ        26.3490   24.6100   34.9230 C.cat 220  ARG220      0.5346
    134  NH1       26.2420   25.6640   35.6820 N.pl3 220  ARG220      0.1354
    135  NH2       26.4310   23.4220   35.6410 N.pl3 220  ARG220      0.1354
    136  N         23.4500   22.9990   34.8890 N.am  221  GLY221     -0.1940
    137  CA        23.0780   22.8410   36.3020 C.3   221  GLY221      0.2014
    138  C         21.7410   22.1390   36.4720 C.2   221  GLY221      0.2639
    139  O         21.2760   21.5190   35.4990 O.2   221  GLY221     -0.2714
    140  N         21.1700   22.2270   37.6790 N.am  222  CYS222     -0.1967
    141  CA        19.8020   21.7670   38.0060 C.3   222  CYS222      0.1712
    142  C         19.0450   22.8520   38.7900 C.2   222  CYS222      0.2296
    143  O         19.5230   23.3150   39.8350 O.2   222  CYS222     -0.2864
    144  CB        19.9080   20.5300   38.8670 C.3   222  CYS222      0.0983
    145  SG        20.8550   19.2750   37.9650 S.3   222  CYS222     -0.0798
    146  N         17.8280   28.7460   33.3250 N.3   227  LYS227     -0.1231
    147  CA        18.5040   27.5960   32.6850 C.3   227  LYS227      0.1678
    148  C         17.5000   26.4140   32.6920 C.2   227  LYS227      0.2434
    149  O         17.5540   25.5190   33.5870 O.2   227  LYS227     -0.2733
    150  CB        19.8340   27.2360   33.4060 C.3   227  LYS227      0.0284
    151  CG        20.8850   28.3270   33.3670 C.3   227  LYS227      0.0035
    152  CD        21.2710   28.8260   31.9160 C.3   227  LYS227      0.0206
    153  CE        21.9590   30.2840   31.9730 C.3   227  LYS227      0.1093
    154  NZ        22.5250   30.5310   30.6400 N.3   227  LYS227     -0.1314
    155  N         16.5800   26.4130   31.7180 N.am  228  PRO228     -0.2718
    156  CA        15.6280   25.2550   31.6520 C.3   228  PRO228      0.1535
    157  C         16.2350   23.8890   31.4490 C.2   228  PRO228      0.2599
    158  O         17.3260   23.7510   30.9430 O.2   228  PRO228     -0.2715
    159  CB        14.7060   25.6150   30.4780 C.3   228  PRO228      0.0310
    160  CG        14.7690   27.1890   30.3680 C.3   228  PRO228      0.0237
    161  CD        16.2810   27.4190   30.6740 C.3   228  PRO228      0.0939
    162  N         15.4360   22.8910   31.8150 N.am  229  GLY229     -0.1941
    163  CA        15.7100   21.5680   31.3080 C.3   229  GLY229      0.2014
    164  C         15.4650   21.4960   29.8030 C.2   229  GLY229      0.2638
    165  O         14.5290   22.1370   29.2460 O.2   229  GLY229     -0.2714
    166  N         16.2500   20.7120   29.0580 N.am  230  VAL230     -0.1977
    167  CA        16.0210   20.6390   27.6130 C.3   230  VAL230      0.1596
    168  C         15.7690   19.1280   27.2630 C.2   230  VAL230      0.2287
    169  O         16.3790   18.2230   27.8830 O.2   230  VAL230     -0.2864
    170  CB        17.2510   21.1590   26.7940 C.3   230  VAL230      0.0276
    171  CG1       16.9180   21.1540   25.2720 C.3   230  VAL230      0.0022
    172  CG2       17.7400   22.5690   27.3210 C.3   230  VAL230      0.0022
@<TRIPOS>BOND
     1    33    34    1
     2    36    35    2
     3    34    35    1
     4    34    37    1
     5    37    38    1
     6    38    39   ar
     7    38    40   ar
     8    39    41   ar
     9    24    22    1
    10    40    42   ar
    11    47    48    2
    12    47    46    1
    13    41    43   ar
    14    22    21    1
    15    42    43   ar
    16    43    44    1
    17    46    45    1
    18    46    49    1
    19    21    18    1
    20    21    23    1
    21    20    19    2
    22    18    19    1
    23    18    17    1
    24    49    50    1
    25    19    25   am
    26   115   116   ar
    27   115   113   ar
    28   118   116   ar
    29   118   120   ar
    30     1     2    1
    31    50    51   ar
    32    50    52   ar
    33   116   114   ar
    34    51    53   ar
    35   171   170    1
    36   106   105    1
    37   113   112   ar
    38   120   119   ar
    39    25    26    1
    40     2     5    1
    41     2     3    1
    42    31    30   ar
    43    52    54   ar
    44   105   102    1
    45    26    27    1
    46    26    29    1
    47    53    54   ar
    48     5     6    1
    49   114   112   ar
    50   114   117   ar
    51    27    28    2
    52   112   111    1
    53   170   172    1
    54   170   167    1
    55   119   117   ar
    56     3    11   am
    57     3     4    2
    58    30    29    1
    59    30    32   ar
    60   168   167    1
    61   168   169    2
    62     7     6   ar
    63     7     9   ar
    64    11    12    1
    65     6     8   ar
    66   102   103    1
    67   102   101    1
    68   167   166    1
    69   111   108    1
    70   103   107   am
    71   103   104    2
    72    13    12    1
    73    13    14    1
    74   101    96   am
    75   107   108    1
    76    97    96    2
    77     9    10   ar
    78    12    15    1
    79    94    95    1
    80    96    95    1
    81     8    10   ar
    82    15    16    1
    83   108   109    1
    84   166   164   am
    85   165   164    2
    86    95    98    1
    87   110   109    2
    88   109   121   am
    89   164   163    1
    90   121   122    1
    91   160   159    1
    92   160   161    1
    93   159   156    1
    94   154   153    1
    95   161   155    1
    96   122   123    1
    97   158   157    2
    98    98    99    1
    99    98   100    1
   100    90    89    1
   101    90    91    2
   102    92    93    1
   103    92    89    1
   104   163   162    1
   105   157   156    1
   106   157   162   am
   107   123   125   am
   108   123   124    2
   109   156   155    1
   110    89    88    1
   111   155   148   am
   112   125   126    1
   113   152   153    1
   114   152   151    1
   115   129   126    1
   116   129   130    1
   117   126   127    1
   118   147   148    1
   119   147   146    1
   120   147   150    1
   121   148   149    2
   122   131   130    1
   123   131   132    1
   124   151   150    1
   125   132   133    2
   126    68    67    1
   127   127   128    2
   128   127   136   am
   129   136   137    1
   130   133   135    1
   131   133   134    1
   132    61    60   ar
   133    67    64    1
   134   139   138    2
   135    62    60   ar
   136    83    81   am
   137    60    59    1
   138    87    86    1
   139    72    71    2
   140   137   138    1
   141    86    85    1
   142    84    85    1
   143    84    77   am
   144   138   140   am
   145    64    63    1
   146    64    65    1
   147    63    57   am
   148    76    75    1
   149    76    79    1
   150    76    77    1
   151    65    66    2
   152    65    69   am
   153    71    75   am
   154    71    70    1
   155    69    70    1
   156    80    81    1
   157    80    79    1
   158    81    82    2
   159    77    78    2
   160    70    73    1
   161    59    56    1
   162   140   141    1
   163    57    56    1
   164    57    58    2
   165    56    55    1
   166   145   144    1
   167   145    74    1
   168   141   142    1
   169   141   144    1
   170   142   143    2
   171    73    74    1
