@<TRIPOS>MOLECULE
tmp/1owiA00.pdb
 183 180 0 0 0
SMALL
GASTEIGER

@<TRIPOS>ATOM
      1  N         22.9900    9.4180   25.0220 N.3    46  HIS46      -0.1226
      2  CA        24.1660    9.7470   25.8180 C.3    46  HIS46       0.1752
      3  C         24.3140    8.9470   27.1020 C.2    46  HIS46       0.2596
      4  O         25.2460    9.1680   27.8820 O.2    46  HIS46      -0.2718
      5  CB        24.2230   11.2500   26.1420 C.3    46  HIS46       0.0759
      6  CG        23.3970   11.6630   27.3220 C.ar   46  HIS46       0.0818
      7  ND1       22.0820   12.0610   27.2140 N.ar   46  HIS46      -0.2268
      8  CD2       23.7040   11.7470   28.6390 C.ar   46  HIS46       0.1154
      9  CE1       21.6150   12.3760   28.4130 C.ar   46  HIS46       0.1986
     10  NE2       22.5820   12.1930   29.2940 N.ar   46  HIS46      -0.2212
     11  N         23.3820    8.0250   27.3230 N.am   47  CYS47      -0.1970
     12  CA        23.4090    7.1600   28.5020 C.3    47  CYS47       0.1712
     13  C         24.0690    5.8390   28.1290 C.2    47  CYS47       0.2296
     14  O         24.3260    4.9930   28.9920 O.2    47  CYS47      -0.2864
     15  CB        21.9830    6.8640   28.9740 C.3    47  CYS47       0.0983
     16  SG        21.0850    8.2440   29.7500 S.3    47  CYS47      -0.0798
     17  N         26.1980    5.6810   24.7300 N.3    49  ILE49      -0.1231
     18  CA        27.2580    5.9420   23.7650 C.3    49  ILE49       0.1692
     19  C         28.6540    5.4670   24.1860 C.2    49  ILE49       0.2592
     20  O         29.3880    4.8870   23.3740 O.2    49  ILE49      -0.2718
     21  CB        27.2950    7.4570   23.4180 C.3    49  ILE49       0.0266
     22  CG1       28.0750    7.6760   22.1260 C.3    49  ILE49       0.0019
     23  CG2       27.9080    8.2570   24.5500 C.3    49  ILE49       0.0020
     24  CD1       27.3630    7.1250   20.8980 C.3    49  ILE49       0.0001
     25  N         29.0100    5.6880   25.4510 N.am   50  ASP50      -0.1974
     26  CA        30.3150    5.2960   25.9630 C.3    50  ASP50       0.1709
     27  C         30.4250    3.8060   26.3550 C.2    50  ASP50       0.2293
     28  O         31.5120    3.2950   26.5250 O.2    50  ASP50      -0.2864
     29  CB        30.6980    6.2040   27.1430 C.3    50  ASP50       0.1436
     30  CG        30.7420    7.6860   26.7590 C.2    50  ASP50       0.3671
     31  OD1       31.4130    8.0240   25.7700 O.co2  50  ASP50      -0.2456
     32  OD2       30.1150    8.5220   27.4430 O.co2  50  ASP50      -0.2456
     33  N         24.1330   11.3170   16.1550 N.3    87  TYR87      -0.1241
     34  CA        24.3220   11.9530   17.4660 C.3    87  TYR87       0.1605
     35  C         25.6940   12.5920   17.7180 C.2    87  TYR87       0.2264
     36  O         26.7230   12.1150   17.2370 O.2    87  TYR87      -0.2867
     37  CB        24.0000   10.9280   18.5730 C.3    87  TYR87       0.0534
     38  CG        24.4690   11.2950   19.9770 C.ar   87  TYR87      -0.0201
     39  CD1       25.8050   11.1300   20.3520 C.ar   87  TYR87      -0.0009
     40  CD2       23.5830   11.8400   20.9160 C.ar   87  TYR87      -0.0009
     41  CE1       26.2510   11.4970   21.6180 C.ar   87  TYR87       0.0417
     42  CE2       24.0210   12.2130   22.1880 C.ar   87  TYR87       0.0417
     43  CZ        25.3590   12.0420   22.5300 C.ar   87  TYR87       0.1957
     44  OH        25.8180   12.4400   23.7670 O.3    87  TYR87      -0.2866
     45  N         27.7500   15.5420   20.8220 N.3    89  ALA89      -0.1245
     46  CA        27.6470   16.2810   22.0800 C.3    89  ALA89       0.1562
     47  C         28.5580   17.4930   22.1710 C.2    89  ALA89       0.2260
     48  O         29.7630   17.3500   22.3410 O.2    89  ALA89      -0.2867
     49  CB        27.9360   15.3530   23.2520 C.3    89  ALA89       0.0290
     50  N         23.0720   18.4520   23.3600 N.3    94  HIS94      -0.1241
     51  CA        23.2410   17.0740   22.9110 C.3    94  HIS94       0.1621
     52  C         22.3180   16.9040   21.7140 C.2    94  HIS94       0.2264
     53  O         21.1110   17.1320   21.7990 O.2    94  HIS94      -0.2867
     54  CB        22.8750   16.0750   24.0170 C.3    94  HIS94       0.0745
     55  CG        23.9350   15.9110   25.0650 C.ar   94  HIS94       0.0817
     56  ND1       25.1920   15.4240   24.7790 N.ar   94  HIS94      -0.2268
     57  CD2       23.9280   16.1650   26.3950 C.ar   94  HIS94       0.1154
     58  CE1       25.9140   15.3860   25.8850 C.ar   94  HIS94       0.1986
     59  NE2       25.1680   15.8310   26.8790 N.ar   94  HIS94      -0.2212
     60  N         13.3220   20.8680   39.3860 N.3   192  ASP192     -0.1225
     61  CA        13.8180   20.5940   38.0520 C.3   192  ASP192      0.1805
     62  C         14.3910   19.1880   38.0320 C.2   192  ASP192      0.2598
     63  O         14.6740   18.6270   39.0750 O.2   192  ASP192     -0.2718
     64  CB        14.8860   21.6500   37.7030 C.3   192  ASP192      0.1424
     65  CG        15.6130   21.3730   36.3970 C.2   192  ASP192      0.3668
     66  OD1       14.9500   21.0380   35.3910 O.co2 192  ASP192     -0.2456
     67  OD2       16.8530   21.5170   36.3700 O.co2 192  ASP192     -0.2456
     68  N         14.5100   18.6070   36.8430 N.am  193  SER193     -0.1938
     69  CA        15.0870   17.2810   36.7110 C.3   193  SER193      0.2055
     70  C         16.5740   17.5000   36.9560 C.2   193  SER193      0.2643
     71  O         17.0070   18.6420   37.1630 O.2   193  SER193     -0.2714
     72  CB        14.8360   16.7210   35.3080 C.3   193  SER193      0.2130
     73  OG        15.2010   17.6560   34.3140 O.3   193  SER193     -0.2179
     74  N         17.3670   16.4370   36.9450 N.am  194  CYS194     -0.1953
     75  CA        18.7900   16.6100   37.1890 C.3   194  CYS194      0.1843
     76  C         19.5200   15.3190   36.8230 C.2   194  CYS194      0.2625
     77  O         18.8790   14.3310   36.4600 O.2   194  CYS194     -0.2714
     78  CB        18.9950   16.9620   38.6700 C.3   194  CYS194      0.0997
     79  SG        20.6320   17.6230   39.1250 S.3   194  CYS194     -0.0797
     80  N         20.8530   15.3420   36.8950 N.am  195  GLN195     -0.1977
     81  CA        21.6690   14.1680   36.6060 C.3   195  GLN195      0.1601
     82  C         21.0570   12.9600   37.3180 C.2   195  GLN195      0.2287
     83  O         20.7460   13.0080   38.5060 O.2   195  GLN195     -0.2864
     84  CB        23.1070   14.4100   37.0760 C.3   195  GLN195      0.0394
     85  CG        24.0290   13.2060   36.9660 C.3   195  GLN195      0.0908
     86  CD        25.4890   13.5650   37.1680 C.2   195  GLN195      0.2608
     87  OE1       25.8550   14.1970   38.1380 O.2   195  GLN195     -0.2717
     88  NE2       26.3300   13.1450   36.2380 N.am  195  GLN195     -0.0878
     89  N         18.2980   11.6950   33.3710 N.3   198  SER198     -0.1217
     90  CA        18.5130   11.7200   31.9250 C.3   198  SER198      0.1889
     91  C         17.7010   10.6420   31.2050 C.2   198  SER198      0.2288
     92  O         17.5690    9.5370   31.6890 O.2   198  SER198     -0.2866
     93  CB        20.0090   11.5500   31.6110 C.3   198  SER198      0.2089
     94  OG        20.8000   12.5660   32.2240 O.3   198  SER198     -0.2183
     95  N         14.4190   13.4390   28.6170 N.3   216  VAL216     -0.1231
     96  CA        15.3570   14.2910   29.3560 C.3   216  VAL216      0.1692
     97  C         16.7310   14.2430   28.6700 C.2   216  VAL216      0.2593
     98  O         17.3150   13.1850   28.5150 O.2   216  VAL216     -0.2718
     99  CB        15.4590   13.8300   30.8390 C.3   216  VAL216      0.0266
    100  CG1       16.4300   14.7070   31.6100 C.3   216  VAL216      0.0020
    101  CG2       14.0770   13.8890   31.4840 C.3   216  VAL216      0.0020
    102  N         17.2300   15.4040   28.2510 N.am  217  SER217     -0.1938
    103  CA        18.5110   15.4710   27.5430 C.3   217  SER217      0.2055
    104  C         19.6370   16.2430   28.2240 C.2   217  SER217      0.2643
    105  O         20.6530   15.6530   28.5820 O.2   217  SER217     -0.2714
    106  CB        18.3020   16.0410   26.1310 C.3   217  SER217      0.2130
    107  OG        19.5100   16.0720   25.3990 O.3   217  SER217     -0.2179
    108  N         19.4770   17.5560   28.3820 N.am  218  TRP218     -0.1959
    109  CA        20.5310   18.3690   28.9970 C.3   218  TRP218      0.1771
    110  C         20.0590   19.6830   29.5880 C.2   218  TRP218      0.2620
    111  O         18.9630   20.1220   29.3160 O.2   218  TRP218     -0.2715
    112  CB        21.6290   18.6870   27.9820 C.3   218  TRP218      0.0590
    113  CG        21.1480   19.4720   26.7830 C.ar  218  TRP218      0.0006
    114  CD1       20.5330   18.9810   25.6550 C.ar  218  TRP218      0.0946
    115  CD2       21.1990   20.8900   26.6230 C.ar  218  TRP218      0.0152
    116  NE1       20.2050   20.0080   24.8130 N.ar  218  TRP218     -0.2442
    117  CE2       20.6000   21.1920   25.3780 C.ar  218  TRP218      0.0810
    118  CE3       21.6940   21.9390   27.4130 C.ar  218  TRP218      0.0012
    119  CZ2       20.4810   22.4990   24.9020 C.ar  218  TRP218      0.0191
    120  CZ3       21.5770   23.2410   26.9410 C.ar  218  TRP218      0.0001
    121  CH2       20.9740   23.5090   25.6930 C.ar  218  TRP218      0.0015
    122  N         20.9260   20.2970   30.3930 N.am  219  GLY219     -0.1940
    123  CA        20.6330   21.5740   31.0230 C.3   219  GLY219      0.2014
    124  C         21.8280   22.0820   31.8110 C.2   219  GLY219      0.2639
    125  O         22.6660   21.2980   32.2230 O.2   219  GLY219     -0.2714
    126  N         21.9340   23.3910   32.0080 N.am  220  ARG220     -0.1963
    127  CA        23.0450   23.9350   32.7950 C.3   220  ARG220      0.1729
    128  C         22.7120   23.8160   34.2950 C.2   220  ARG220      0.2617
    129  O         21.7600   24.4440   34.7910 O.2   220  ARG220     -0.2715
    130  CB        23.2970   25.4060   32.4290 C.3   220  ARG220      0.0348
    131  CG        24.3390   26.1560   33.2870 C.3   220  ARG220      0.0492
    132  CD        25.7820   25.7400   33.0300 C.3   220  ARG220      0.2205
    133  NE        26.1840   24.4370   33.5740 N.pl3 220  ARG220     -0.0865
    134  CZ        26.3550   24.1620   34.8660 C.cat 220  ARG220      0.5346
    135  NH1       26.1510   25.0880   35.7980 N.pl3 220  ARG220      0.1354
    136  NH2       26.7520   22.9500   35.2280 N.pl3 220  ARG220      0.1354
    137  N         23.4910   23.0060   35.0090 N.am  221  GLY221     -0.1940
    138  CA        23.2610   22.8130   36.4310 C.3   221  GLY221      0.2014
    139  C         21.9330   22.1210   36.6460 C.2   221  GLY221      0.2639
    140  O         21.5590   21.2830   35.8370 O.2   221  GLY221     -0.2714
    141  N         21.2310   22.4740   37.7270 N.am  222  CYS222     -0.1953
    142  CA        19.9170   21.9030   38.0490 C.3   222  CYS222      0.1843
    143  C         19.0660   22.8580   38.8760 C.2   222  CYS222      0.2625
    144  O         19.4030   23.1840   40.0170 O.2   222  CYS222     -0.2714
    145  CB        20.0510   20.5920   38.8220 C.3   222  CYS222      0.0997
    146  SG        20.8250   19.2310   37.9010 S.3   222  CYS222     -0.0797
    147  N         17.9520   23.2880   38.2950 N.am  223  ALA223     -0.1977
    148  CA        17.0240   24.2000   38.9580 C.3   223  ALA223      0.1597
    149  C         17.5720   25.6180   39.0630 C.2   223  ALA223      0.2287
    150  O         17.1610   26.3900   39.9280 O.2   223  ALA223     -0.2864
    151  CB        16.6710   23.6730   40.3370 C.3   223  ALA223      0.0319
    152  N         17.7510   28.7240   33.2830 N.3   227  LYS227     -0.1245
    153  CA        18.4130   27.5290   32.7750 C.3   227  LYS227      0.1561
    154  C         17.4390   26.3510   32.6910 C.2   227  LYS227      0.2260
    155  O         17.5740   25.3490   33.4200 O.2   227  LYS227     -0.2867
    156  CB        19.6020   27.1870   33.6760 C.3   227  LYS227      0.0271
    157  CG        20.5960   28.3230   33.7620 C.3   227  LYS227      0.0035
    158  CD        21.0480   28.7220   32.3700 C.3   227  LYS227      0.0206
    159  CE        21.9410   29.9340   32.3860 C.3   227  LYS227      0.1093
    160  NZ        22.4350   30.2400   31.0180 N.3   227  LYS227     -0.1314
    161  N         15.1940   22.9960   31.5080 N.3   229  GLY229     -0.1210
    162  CA        15.6440   21.6460   31.2580 C.3   229  GLY229      0.1956
    163  C         15.3110   21.4030   29.7970 C.2   229  GLY229      0.2612
    164  O         14.1740   21.6200   29.3810 O.2   229  GLY229     -0.2717
    165  N         16.2990   20.9830   29.0120 N.am  230  VAL230     -0.1965
    166  CA        16.0890   20.7260   27.5950 C.3   230  VAL230      0.1727
    167  C         15.6720   19.2670   27.4020 C.2   230  VAL230      0.2616
    168  O         16.0310   18.4020   28.1960 O.2   230  VAL230     -0.2715
    169  CB        17.3670   21.0290   26.8000 C.3   230  VAL230      0.0290
    170  CG1       17.1320   20.8300   25.3150 C.3   230  VAL230      0.0023
    171  CG2       17.8030   22.4460   27.0750 C.3   230  VAL230      0.0023
    172  N         14.9060   19.0010   26.3460 N.am  231  TYR231     -0.1974
    173  CA        14.4110   17.6530   26.0560 C.3   231  TYR231      0.1639
    174  C         14.3730   17.4170   24.5470 C.2   231  TYR231      0.2290
    175  O         14.4030   18.3610   23.7640 O.2   231  TYR231     -0.2864
    176  CB        12.9990   17.5010   26.6360 C.3   231  TYR231      0.0560
    177  CG        12.9120   17.7210   28.1350 C.ar  231  TYR231     -0.0198
    178  CD1       13.1290   16.6720   29.0340 C.ar  231  TYR231     -0.0009
    179  CD2       12.6500   18.9860   28.6550 C.ar  231  TYR231     -0.0009
    180  CE1       13.0850   16.8800   30.4200 C.ar  231  TYR231      0.0417
    181  CE2       12.6060   19.2060   30.0340 C.ar  231  TYR231      0.0417
    182  CZ        12.8250   18.1530   30.9150 C.ar  231  TYR231      0.1957
    183  OH        12.7850   18.3790   32.2820 O.3   231  TYR231     -0.2866
@<TRIPOS>BOND
     1    33    34    1
     2    36    35    2
     3    34    35    1
     4    34    37    1
     5    37    38    1
     6    38    39   ar
     7    38    40   ar
     8    39    41   ar
     9    45    46    1
    10    24    22    1
    11    40    42   ar
    12    41    43   ar
    13    52    53    2
    14    52    51    1
    15    46    47    1
    16    46    49    1
    17    22    21    1
    18    47    48    2
    19    42    43   ar
    20    43    44    1
    21    51    50    1
    22    51    54    1
    23    20    19    2
    24    21    18    1
    25    21    23    1
    26   175   174    2
    27    18    19    1
    28    18    17    1
    29    54    55    1
    30    19    25   am
    31   174   173    1
    32    56    55   ar
    33    56    58   ar
    34   116   117   ar
    35   116   114   ar
    36   119   117   ar
    37   119   121   ar
    38     1     2    1
    39    55    57   ar
    40   170   169    1
    41   117   115   ar
    42   107   106    1
    43    25    26    1
    44   114   113   ar
    45   121   120   ar
    46    31    30   ar
    47     2     5    1
    48     2     3    1
    49    58    59   ar
    50    26    27    1
    51    26    29    1
    52   173   172    1
    53   173   176    1
    54   106   103    1
    55     5     6    1
    56   172   167   am
    57    27    28    2
    58    57    59   ar
    59   115   113   ar
    60   115   118   ar
    61   176   177    1
    62    30    29    1
    63    30    32   ar
    64   113   112    1
    65   169   171    1
    66   169   166    1
    67   120   118   ar
    68     3    11   am
    69     3     4    2
    70     7     6   ar
    71     7     9   ar
    72     6     8   ar
    73    11    12    1
    74   167   166    1
    75   167   168    2
    76   103   104    1
    77   103   102    1
    78   166   165    1
    79   112   109    1
    80    13    12    1
    81    13    14    2
    82   177   179   ar
    83   177   178   ar
    84   104   108   am
    85   104   105    2
    86   102    97   am
    87   108   109    1
    88     9    10   ar
    89    12    15    1
    90    98    97    2
    91    95    96    1
    92     8    10   ar
    93   179   181   ar
    94    97    96    1
    95    15    16    1
    96   109   110    1
    97   165   163   am
    98   178   180   ar
    99   111   110    2
   100    96    99    1
   101   164   163    2
   102   110   122   am
   103   163   162    1
   104   181   182   ar
   105   122   123    1
   106   180   182   ar
   107    99   101    1
   108    99   100    1
   109   182   183    1
   110   160   159    1
   111   123   124    1
   112    91    92    2
   113    91    90    1
   114   162   161    1
   115    93    90    1
   116    93    94    1
   117   124   126   am
   118   124   125    2
   119    90    89    1
   120   126   127    1
   121   158   159    1
   122   158   157    1
   123   130   127    1
   124   130   131    1
   125   154   153    1
   126   154   155    2
   127   153   152    1
   128   153   156    1
   129   127   128    1
   130   132   131    1
   131   132   133    1
   132   133   134    2
   133   156   157    1
   134   128   129    2
   135   128   137   am
   136    73    72    1
   137   134   136    1
   138   134   135    1
   139   137   138    1
   140    72    69    1
   141    66    65   ar
   142   140   139    2
   143    88    86   am
   144    67    65   ar
   145    65    64    1
   146   138   139    1
   147    77    76    2
   148    81    80    1
   149    81    84    1
   150    81    82    1
   151   139   141   am
   152    69    68    1
   153    69    70    1
   154    76    80   am
   155    76    75    1
   156    68    62   am
   157    74    70   am
   158    74    75    1
   159    70    71    2
   160    85    84    1
   161    85    86    1
   162    86    87    2
   163    75    78    1
   164    82    83    2
   165    64    61    1
   166   141   142    1
   167   146   145    1
   168   146    79    1
   169    62    61    1
   170    62    63    2
   171   142   145    1
   172   142   143    1
   173    61    60    1
   174   147   143   am
   175   147   148    1
   176    78    79    1
   177   143   144    2
   178   148   149    1
   179   148   151    1
   180   149   150    2
