@<TRIPOS>MOLECULE
tmp/1owkA00.pdb
 184 184 0 0 0
SMALL
GASTEIGER

@<TRIPOS>ATOM
      1  N         23.0100    9.4230   25.0530 N.3    46  HIS46      -0.1241
      2  CA        24.1580    9.7510   25.9100 C.3    46  HIS46       0.1621
      3  C         24.2750    8.9170   27.1800 C.2    46  HIS46       0.2264
      4  O         25.1630    9.1460   27.9990 O.2    46  HIS46      -0.2867
      5  CB        24.1920   11.2470   26.2850 C.3    46  HIS46       0.0745
      6  CG        23.2480   11.6370   27.3830 C.ar   46  HIS46       0.0817
      7  ND1       22.0360   12.2510   27.1470 N.ar   46  HIS46      -0.2268
      8  CD2       23.3500   11.5170   28.7290 C.ar   46  HIS46       0.1154
      9  CE1       21.4360   12.4980   28.2970 C.ar   46  HIS46       0.1986
     10  NE2       22.2110   12.0630   29.2730 N.ar   46  HIS46      -0.2212
     11  N         26.3750    5.7410   24.9160 N.3    49  ILE49      -0.1231
     12  CA        27.3950    6.0370   23.9250 C.3    49  ILE49       0.1692
     13  C         28.7850    5.5360   24.3090 C.2    49  ILE49       0.2592
     14  O         29.5040    5.0120   23.4540 O.2    49  ILE49      -0.2718
     15  CB        27.4400    7.5610   23.6200 C.3    49  ILE49       0.0266
     16  CG1       28.2960    7.8340   22.3810 C.3    49  ILE49       0.0019
     17  CG2       27.9860    8.3240   24.8070 C.3    49  ILE49       0.0020
     18  CD1       27.7430    7.2400   21.1070 C.3    49  ILE49       0.0001
     19  N         29.1670    5.6780   25.5790 N.am   50  ASP50      -0.1960
     20  CA        30.4800    5.2160   26.0230 C.3    50  ASP50       0.1840
     21  C         30.6210    3.6990   26.1610 C.2    50  ASP50       0.2622
     22  O         31.6830    3.1540   25.8720 O.2    50  ASP50      -0.2715
     23  CB        30.8760    5.8900   27.3310 C.3    50  ASP50       0.1450
     24  CG        31.2050    7.3530   27.1430 C.2    50  ASP50       0.3671
     25  OD1       32.0610    7.6530   26.2810 O.co2  50  ASP50      -0.2456
     26  OD2       30.6240    8.2010   27.8560 O.co2  50  ASP50      -0.2456
     27  N         29.5770    3.0050   26.6000 N.am   51  TYR51      -0.1974
     28  CA        29.6800    1.5520   26.7030 C.3    51  TYR51       0.1639
     29  C         28.5500    0.9920   25.8550 C.2    51  TYR51       0.2290
     30  O         27.5440    0.5230   26.3840 O.2    51  TYR51      -0.2864
     31  CB        29.5410    1.0630   28.1560 C.3    51  TYR51       0.0560
     32  CG        30.3460    1.8360   29.1830 C.ar   51  TYR51      -0.0198
     33  CD1       29.9020    3.0740   29.6470 C.ar   51  TYR51      -0.0009
     34  CD2       31.5620    1.3490   29.6640 C.ar   51  TYR51      -0.0009
     35  CE1       30.6410    3.8130   30.5580 C.ar   51  TYR51       0.0417
     36  CE2       32.3220    2.0840   30.5840 C.ar   51  TYR51       0.0417
     37  CZ        31.8500    3.3190   31.0250 C.ar   51  TYR51       0.1957
     38  OH        32.5810    4.0820   31.9210 O.3    51  TYR51      -0.2866
     39  N         24.6930   11.3390   16.4860 N.3    87  TYR87      -0.1241
     40  CA        24.8780   11.9600   17.8070 C.3    87  TYR87       0.1605
     41  C         26.2200   12.6540   18.0640 C.2    87  TYR87       0.2264
     42  O         27.2840   12.1640   17.6710 O.2    87  TYR87      -0.2867
     43  CB        24.6270   10.9190   18.9190 C.3    87  TYR87       0.0534
     44  CG        25.0910   11.3320   20.3160 C.ar   87  TYR87      -0.0201
     45  CD1       26.4500   11.3530   20.6460 C.ar   87  TYR87      -0.0009
     46  CD2       24.1750   11.7310   21.2930 C.ar   87  TYR87      -0.0009
     47  CE1       26.8870   11.7610   21.9140 C.ar   87  TYR87       0.0417
     48  CE2       24.5990   12.1390   22.5630 C.ar   87  TYR87       0.0417
     49  CZ        25.9570   12.1510   22.8660 C.ar   87  TYR87       0.1957
     50  OH        26.3890   12.5330   24.1190 O.3    87  TYR87      -0.2866
     51  N         23.1900   18.5580   23.4340 N.3    94  HIS94      -0.1241
     52  CA        23.3650   17.1830   22.9760 C.3    94  HIS94       0.1621
     53  C         22.4400   16.9720   21.7730 C.2    94  HIS94       0.2264
     54  O         21.2240   17.1490   21.8710 O.2    94  HIS94      -0.2867
     55  CB        23.0000   16.2150   24.1070 C.3    94  HIS94       0.0745
     56  CG        23.9240   16.2830   25.2820 C.ar   94  HIS94       0.0817
     57  ND1       25.1690   15.6910   25.2850 N.ar   94  HIS94      -0.2268
     58  CD2       23.8170   16.9380   26.4630 C.ar   94  HIS94       0.1154
     59  CE1       25.7880   15.9790   26.4160 C.ar   94  HIS94       0.1986
     60  NE2       24.9900   16.7350   27.1480 N.ar   94  HIS94      -0.2212
     61  N         12.9570   20.8200   39.3730 N.3   192  ASP192     -0.1225
     62  CA        13.5060   20.5460   38.0420 C.3   192  ASP192      0.1805
     63  C         14.0920   19.1270   37.9610 C.2   192  ASP192      0.2598
     64  O         14.2440   18.4730   38.9820 O.2   192  ASP192     -0.2718
     65  CB        14.5850   21.6140   37.7580 C.3   192  ASP192      0.1424
     66  CG        15.3510   21.3790   36.4630 C.2   192  ASP192      0.3668
     67  OD1       14.7340   21.0440   35.4250 O.co2 192  ASP192     -0.2456
     68  OD2       16.5850   21.5620   36.4850 O.co2 192  ASP192     -0.2456
     69  N         14.3780   18.6220   36.7630 N.am  193  SER193     -0.1938
     70  CA        15.0070   17.3050   36.6750 C.3   193  SER193      0.2055
     71  C         16.5050   17.5450   36.9040 C.2   193  SER193      0.2643
     72  O         16.9510   18.6910   36.9440 O.2   193  SER193     -0.2714
     73  CB        14.7490   16.6370   35.3120 C.3   193  SER193      0.2130
     74  OG        15.1190   17.4520   34.2140 O.3   193  SER193     -0.2179
     75  N         17.2890   16.4870   37.0600 N.am  194  CYS194     -0.1953
     76  CA        18.7070   16.6800   37.3200 C.3   194  CYS194      0.1843
     77  C         19.4760   15.4290   36.9130 C.2   194  CYS194      0.2625
     78  O         18.8960   14.5240   36.3110 O.2   194  CYS194     -0.2714
     79  CB        18.8830   16.9980   38.8110 C.3   194  CYS194      0.0997
     80  SG        20.4940   17.6760   39.3310 S.3   194  CYS194     -0.0797
     81  N         20.7680   15.3670   37.2340 N.am  195  GLN195     -0.1963
     82  CA        21.5850   14.2060   36.8650 C.3   195  GLN195      0.1733
     83  C         21.0870   12.8770   37.4550 C.2   195  GLN195      0.2616
     84  O         20.9510   12.7180   38.6730 O.2   195  GLN195     -0.2715
     85  CB        23.0500   14.4320   37.2470 C.3   195  GLN195      0.0408
     86  CG        23.9940   13.3760   36.6960 C.3   195  GLN195      0.0908
     87  CD        25.4390   13.6580   37.0410 C.2   195  GLN195      0.2608
     88  OE1       25.8130   13.7190   38.2100 O.2   195  GLN195     -0.2717
     89  NE2       26.2620   13.8330   36.0200 N.am  195  GLN195     -0.0878
     90  N         20.8410   11.9240   36.5620 N.am  196  GLY196     -0.1955
     91  CA        20.3270   10.6270   36.9570 C.3   196  GLY196      0.1869
     92  C         18.9620   10.4550   36.3140 C.2   196  GLY196      0.2309
     93  O         18.4770    9.3380   36.1350 O.2   196  GLY196     -0.2863
     94  N         18.1830   11.7860   33.1890 N.3   198  SER198     -0.1217
     95  CA        18.3140   11.7010   31.7360 C.3   198  SER198      0.1889
     96  C         17.6330   10.4690   31.1370 C.2   198  SER198      0.2288
     97  O         17.5670    9.4100   31.7630 O.2   198  SER198     -0.2866
     98  CB        19.7880   11.7030   31.3410 C.3   198  SER198      0.2089
     99  OG        20.4350   12.8800   31.7920 O.3   198  SER198     -0.2183
    100  N         14.3640   13.4660   28.5750 N.3   216  VAL216     -0.1231
    101  CA        15.3540   14.2410   29.3140 C.3   216  VAL216      0.1692
    102  C         16.7180   14.1390   28.6200 C.2   216  VAL216      0.2593
    103  O         17.1990   13.0480   28.3450 O.2   216  VAL216     -0.2718
    104  CB        15.4660   13.7580   30.7840 C.3   216  VAL216      0.0266
    105  CG1       16.5530   14.5340   31.5080 C.3   216  VAL216      0.0020
    106  CG2       14.1400   13.9590   31.4990 C.3   216  VAL216      0.0020
    107  N         17.3260   15.2860   28.3260 N.am  217  SER217     -0.1938
    108  CA        18.6170   15.3160   27.6500 C.3   217  SER217      0.2055
    109  C         19.6860   16.1320   28.3720 C.2   217  SER217      0.2643
    110  O         20.5910   15.5460   28.9730 O.2   217  SER217     -0.2714
    111  CB        18.4570   15.8450   26.2210 C.3   217  SER217      0.2130
    112  OG        19.7130   15.9330   25.5650 O.3   217  SER217     -0.2179
    113  N         19.5980   17.4680   28.3090 N.am  218  TRP218     -0.1959
    114  CA        20.5930   18.3320   28.9600 C.3   218  TRP218      0.1771
    115  C         20.0440   19.5880   29.6200 C.2   218  TRP218      0.2620
    116  O         18.8430   19.8530   29.5770 O.2   218  TRP218     -0.2715
    117  CB        21.6900   18.7560   27.9690 C.3   218  TRP218      0.0590
    118  CG        21.2180   19.5690   26.7800 C.ar  218  TRP218      0.0006
    119  CD1       20.5960   19.1020   25.6520 C.ar  218  TRP218      0.0946
    120  CD2       21.3180   20.9900   26.6190 C.ar  218  TRP218      0.0152
    121  NE1       20.3070   20.1440   24.8030 N.ar  218  TRP218     -0.2442
    122  CE2       20.7380   21.3140   25.3720 C.ar  218  TRP218      0.0810
    123  CE3       21.8410   22.0230   27.4100 C.ar  218  TRP218      0.0012
    124  CZ2       20.6680   22.6310   24.8940 C.ar  218  TRP218      0.0191
    125  CZ3       21.7710   23.3390   26.9360 C.ar  218  TRP218      0.0001
    126  CH2       21.1880   23.6280   25.6890 C.ar  218  TRP218      0.0015
    127  N         20.9520   20.3610   30.2200 N.am  219  GLY219     -0.1954
    128  CA        20.6050   21.6020   30.8930 C.3   219  GLY219      0.1869
    129  C         21.7770   22.1360   31.7030 C.2   219  GLY219      0.2309
    130  O         22.6030   21.3670   32.1850 O.2   219  GLY219     -0.2863
    131  N         23.2440   23.0100   34.8140 N.3   221  GLY221     -0.1210
    132  CA        22.9960   22.8330   36.2360 C.3   221  GLY221      0.1956
    133  C         21.6680   22.1490   36.4860 C.2   221  GLY221      0.2612
    134  O         21.2160   21.3710   35.6540 O.2   221  GLY221     -0.2717
    135  N         21.0490   22.4360   37.6340 N.am  222  CYS222     -0.1956
    136  CA        19.7410   21.8760   38.0060 C.3   222  CYS222      0.1843
    137  C         18.9470   22.9130   38.7950 C.2   222  CYS222      0.2625
    138  O         19.3560   23.3170   39.8770 O.2   222  CYS222     -0.2714
    139  CB        19.8970   20.6170   38.8640 C.3   222  CYS222      0.0997
    140  SG        20.8150   19.2480   38.0830 S.3   222  CYS222     -0.0797
    141  N         17.8180   23.3440   38.2420 N.am  223  ALA223     -0.1977
    142  CA        16.9550   24.3390   38.8790 C.3   223  ALA223      0.1597
    143  C         17.6220   25.7050   39.0170 C.2   223  ALA223      0.2287
    144  O         17.3530   26.4400   39.9670 O.2   223  ALA223     -0.2864
    145  CB        16.5130   23.8440   40.2390 C.3   223  ALA223      0.0319
    146  N         17.9820   28.8730   33.3650 N.3   227  LYS227     -0.1231
    147  CA        18.6620   27.7210   32.7910 C.3   227  LYS227      0.1678
    148  C         17.7270   26.5080   32.8050 C.2   227  LYS227      0.2434
    149  O         17.8720   25.5970   33.6240 O.2   227  LYS227     -0.2733
    150  CB        19.9460   27.4240   33.5770 C.3   227  LYS227      0.0284
    151  CG        20.8860   28.6100   33.6390 C.3   227  LYS227      0.0035
    152  CD        21.1850   29.1200   32.2400 C.3   227  LYS227      0.0206
    153  CE        21.8470   30.4930   32.2750 C.3   227  LYS227      0.1093
    154  NZ        22.0470   31.0840   30.9090 N.3   227  LYS227     -0.1314
    155  N         16.7550   26.4810   31.8830 N.am  228  PRO228     -0.2718
    156  CA        15.7800   25.3910   31.7710 C.3   228  PRO228      0.1535
    157  C         16.3920   24.0150   31.5130 C.2   228  PRO228      0.2599
    158  O         17.6130   23.8620   31.4060 O.2   228  PRO228     -0.2715
    159  CB        14.9040   25.8470   30.6020 C.3   228  PRO228      0.0310
    160  CG        15.0040   27.3770   30.6920 C.3   228  PRO228      0.0237
    161  CD        16.4980   27.4880   30.8410 C.3   228  PRO228      0.0939
    162  N         15.5220   23.0160   31.4470 N.am  229  GLY229     -0.1941
    163  CA        15.9440   21.6650   31.1530 C.3   229  GLY229      0.2014
    164  C         15.5550   21.4820   29.6950 C.2   229  GLY229      0.2639
    165  O         14.4500   21.8780   29.2990 O.2   229  GLY229     -0.2714
    166  N         16.4490   20.9140   28.8870 N.am  230  VAL230     -0.1963
    167  CA        16.1650   20.7150   27.4690 C.3   230  VAL230      0.1727
    168  C         15.8620   19.2440   27.2330 C.2   230  VAL230      0.2616
    169  O         16.5210   18.3730   27.7890 O.2   230  VAL230     -0.2715
    170  CB        17.3590   21.1620   26.5880 C.3   230  VAL230      0.0290
    171  CG1       16.9810   21.0990   25.1110 C.3   230  VAL230      0.0023
    172  CG2       17.7730   22.5740   26.9530 C.3   230  VAL230      0.0023
    173  N         14.8630   18.9810   26.3970 N.am  231  TYR231     -0.1974
    174  CA        14.3950   17.6280   26.0940 C.3   231  TYR231      0.1639
    175  C         14.4330   17.3360   24.5900 C.2   231  TYR231      0.2290
    176  O         14.4780   18.2570   23.7750 O.2   231  TYR231     -0.2864
    177  CB        12.9560   17.4970   26.6020 C.3   231  TYR231      0.0560
    178  CG        12.7950   17.7380   28.0890 C.ar  231  TYR231     -0.0198
    179  CD1       12.6650   16.6650   28.9770 C.ar  231  TYR231     -0.0009
    180  CD2       12.8220   19.0310   28.6190 C.ar  231  TYR231     -0.0009
    181  CE1       12.5700   16.8710   30.3610 C.ar  231  TYR231      0.0417
    182  CE2       12.7290   19.2520   29.9960 C.ar  231  TYR231      0.0417
    183  CZ        12.6070   18.1660   30.8640 C.ar  231  TYR231      0.1957
    184  OH        12.5530   18.3610   32.2290 O.3   231  TYR231     -0.2866
@<TRIPOS>BOND
     1    39    40    1
     2    42    41    2
     3    40    41    1
     4    40    43    1
     5    43    44    1
     6    44    45   ar
     7    44    46   ar
     8    45    47   ar
     9    18    16    1
    10    46    48   ar
    11    53    54    2
    12    53    52    1
    13    47    49   ar
    14    16    15    1
    15    48    49   ar
    16    49    50    1
    17    52    51    1
    18    52    55    1
    19    14    13    2
    20    15    12    1
    21    15    17    1
    22   176   175    2
    23    12    13    1
    24    12    11    1
    25    55    56    1
    26    13    19   am
    27   175   174    1
    28   121   122   ar
    29   121   119   ar
    30   124   122   ar
    31   124   126   ar
    32     1     2    1
    33   171   170    1
    34    56    57   ar
    35    56    58   ar
    36    57    59   ar
    37   122   120   ar
    38   112   111    1
    39    19    20    1
    40   119   118   ar
    41   126   125   ar
    42    29    30    2
    43    29    28    1
    44    22    21    2
    45     2     5    1
    46     2     3    1
    47    20    21    1
    48    20    23    1
    49   174   173    1
    50   174   177    1
    51    21    27   am
    52   111   108    1
    53    25    24   ar
    54     5     6    1
    55   173   168   am
    56    59    60   ar
    57    58    60   ar
    58   170   172    1
    59   170   167    1
    60    27    28    1
    61   177   178    1
    62   120   118   ar
    63   120   123   ar
    64    28    31    1
    65   118   117    1
    66   125   123   ar
    67    24    23    1
    68    24    26   ar
    69     7     6   ar
    70     7     9   ar
    71     3     4    2
    72   168   167    1
    73   168   169    2
    74     6     8   ar
    75   167   166    1
    76   108   107    1
    77   108   109    1
    78   117   114    1
    79   178   180   ar
    80   178   179   ar
    81    31    32    1
    82     9    10   ar
    83   113   109   am
    84   113   114    1
    85   107   102   am
    86   103   102    2
    87   109   110    2
    88   100   101    1
    89   180   182   ar
    90   102   101    1
    91     8    10   ar
    92   166   164   am
    93   114   115    1
    94   179   181   ar
    95    32    33   ar
    96    32    34   ar
    97   165   164    2
    98   101   104    1
    99   116   115    2
   100   115   127   am
   101    33    35   ar
   102    34    36   ar
   103   164   163    1
   104   182   183   ar
   105   127   128    1
   106   181   183   ar
   107    35    37   ar
   108    36    37   ar
   109   159   160    1
   110   159   156    1
   111   160   161    1
   112   104   106    1
   113   104   105    1
   114   161   155    1
   115   183   184    1
   116   128   129    1
   117   154   153    1
   118    37    38    1
   119    96    95    1
   120    96    97    2
   121   163   162    1
   122    98    95    1
   123    98    99    1
   124   158   157    2
   125   162   157   am
   126   157   156    1
   127   129   130    2
   128    95    94    1
   129   156   155    1
   130   155   148   am
   131   152   153    1
   132   152   151    1
   133   147   148    1
   134   147   146    1
   135   147   150    1
   136   148   149    2
   137   150   151    1
   138    74    73    1
   139   131   132    1
   140    73    70    1
   141    67    66   ar
   142   134   133    2
   143    89    87   am
   144    93    92    2
   145   132   133    1
   146    78    77    2
   147    92    91    1
   148    66    68   ar
   149    66    65    1
   150   133   135   am
   151    90    91    1
   152    90    83   am
   153    70    69    1
   154    70    71    1
   155    86    87    1
   156    86    85    1
   157    69    63   am
   158    82    81    1
   159    82    85    1
   160    82    83    1
   161    71    72    2
   162    71    75   am
   163    77    81   am
   164    77    76    1
   165    87    88    2
   166    75    76    1
   167    76    79    1
   168    83    84    2
   169   135   136    1
   170    65    62    1
   171    63    62    1
   172    63    64    2
   173   136   137    1
   174   136   139    1
   175    62    61    1
   176   140   139    1
   177   140    80    1
   178   141   137   am
   179   141   142    1
   180   137   138    2
   181    79    80    1
   182   142   143    1
   183   142   145    1
   184   143   144    2
