@<TRIPOS>MOLECULE
tmp/1owyA00.pdb
 123 114 0 0 0
SMALL
GASTEIGER

@<TRIPOS>ATOM
      1  N         24.5430    6.9620   12.2400 N.3    78  ILE78      -0.1245
      2  CA        24.2070    6.3180   10.9870 C.3    78  ILE78       0.1561
      3  C         23.0450    5.3840   11.2240 C.2    78  ILE78       0.2260
      4  O         22.0800    5.4030   10.4650 O.2    78  ILE78      -0.2867
      5  CB        25.4010    5.4560   10.4980 C.3    78  ILE78       0.0252
      6  CG1       26.3760    6.3790    9.7540 C.3    78  ILE78       0.0019
      7  CG2       24.9360    4.3580    9.5160 C.3    78  ILE78       0.0019
      8  CD1       27.8010    5.8240    9.6120 C.3    78  ILE78       0.0001
      9  N         20.2570    6.7840    5.8600 N.3    84  LEU84      -0.1245
     10  CA        21.5510    6.1500    5.9370 C.3    84  LEU84       0.1561
     11  C         21.5870    4.6660    6.2440 C.2    84  LEU84       0.2260
     12  O         22.3250    3.9180    5.6420 O.2    84  LEU84      -0.2867
     13  CB        22.4920    6.9490    6.8510 C.3    84  LEU84       0.0270
     14  CG        22.6180    8.4450    6.5500 C.3    84  LEU84       0.0019
     15  CD1       23.4870    9.0950    7.6170 C.3    84  LEU84       0.0001
     16  CD2       23.3250    8.6580    5.2270 C.3    84  LEU84       0.0001
     17  N         21.5210    1.8960    3.5880 N.3    87  VAL87      -0.1231
     18  CA        22.6790    1.8490    2.7380 C.3    87  VAL87       0.1692
     19  C         23.8590    1.2070    3.4540 C.2    87  VAL87       0.2592
     20  O         24.5940    0.3530    2.9410 O.2    87  VAL87      -0.2718
     21  CB        23.0360    3.2360    2.1270 C.3    87  VAL87       0.0266
     22  CG1       24.1530    3.0490    1.0900 C.3    87  VAL87       0.0020
     23  CG2       21.8100    3.9530    1.4960 C.3    87  VAL87       0.0020
     24  N         24.0560    1.7180    4.6370 N.am   88  TYR88      -0.1976
     25  CA        25.1490    1.2250    5.4010 C.3    88  TYR88       0.1639
     26  C         25.0470   -0.2940    5.5480 C.2    88  TYR88       0.2290
     27  O         26.0150   -1.0400    5.4080 O.2    88  TYR88      -0.2864
     28  CB        24.9500    1.9000    6.7480 C.3    88  TYR88       0.0560
     29  CG        26.0820    1.5390    7.7110 C.ar   88  TYR88      -0.0198
     30  CD1       27.3400    2.1350    7.6120 C.ar   88  TYR88      -0.0009
     31  CD2       25.8870    0.5160    8.6450 C.ar   88  TYR88      -0.0009
     32  CE1       28.3130    1.7680    8.5390 C.ar   88  TYR88       0.0417
     33  CE2       26.8490    0.0960    9.5550 C.ar   88  TYR88       0.0417
     34  CZ        28.0710    0.7570    9.4640 C.ar   88  TYR88       0.1957
     35  OH        29.0890    0.3930   10.2670 O.3    88  TYR88      -0.2866
     36  N         26.3160   -2.5470    2.8100 N.3    91  LEU91      -0.1245
     37  CA        27.7250   -2.6480    2.4100 C.3    91  LEU91       0.1561
     38  C         28.5400   -3.6760    3.1020 C.2    91  LEU91       0.2260
     39  O         28.1720   -4.1030    4.1910 O.2    91  LEU91      -0.2867
     40  CB        28.4700   -1.3460    2.8110 C.3    91  LEU91       0.0270
     41  CG        27.8240   -0.0830    2.2520 C.3    91  LEU91       0.0019
     42  CD1       28.2300    1.1530    3.0380 C.3    91  LEU91       0.0001
     43  CD2       28.2380    0.0860    0.7910 C.3    91  LEU91       0.0001
     44  N         32.1140    4.7500    5.0420 N.3    99  ALA99      -0.1245
     45  CA        30.8920    5.5020    5.3760 C.3    99  ALA99       0.1562
     46  C         31.0500    6.2280    6.7130 C.2    99  ALA99       0.2260
     47  O         30.6510    7.3990    6.9130 O.2    99  ALA99      -0.2867
     48  CB        29.6660    4.5380    5.4610 C.3    99  ALA99       0.0290
     49  N         33.3680    9.3700    6.4630 N.3   102  GLN102     -0.1231
     50  CA        32.6670   10.5140    5.9650 C.3   102  GLN102      0.1698
     51  C         31.7950   11.1700    7.0080 C.2   102  GLN102      0.2592
     52  O         31.7560   12.4030    7.0800 O.2   102  GLN102     -0.2718
     53  CB        31.7480   10.1370    4.7680 C.3   102  GLN102      0.0381
     54  CG        32.1780   10.5760    3.3550 C.3   102  GLN102      0.0905
     55  CD        31.0810   10.3660    2.3080 C.2   102  GLN102      0.2608
     56  OE1       30.4230    9.3140    2.2830 O.2   102  GLN102     -0.2717
     57  NE2       30.7720   11.3870    1.5260 N.am  102  GLN102     -0.0878
     58  N         31.0090   10.3410    7.7250 N.am  103  VAL103     -0.1980
     59  CA        30.1130   10.8710    8.7280 C.3   103  VAL103      0.1595
     60  C         30.8880   11.4990    9.8560 C.2   103  VAL103      0.2287
     61  O         30.4520   12.4910   10.3990 O.2   103  VAL103     -0.2864
     62  CB        29.0790    9.8590    9.2570 C.3   103  VAL103      0.0276
     63  CG1       28.2570   10.4870   10.3750 C.3   103  VAL103      0.0022
     64  CG2       28.0730    9.6020    8.1450 C.3   103  VAL103      0.0022
     65  N         26.2000   14.0330    4.8190 N.3   111  VAL111     -0.1245
     66  CA        26.0200   12.7910    4.1260 C.3   111  VAL111      0.1561
     67  C         24.6050   12.4860    3.7230 C.2   111  VAL111      0.2260
     68  O         24.3880   11.9860    2.6030 O.2   111  VAL111     -0.2867
     69  CB        26.7010   11.6780    4.8880 C.3   111  VAL111      0.0252
     70  CG1       26.6400   10.4140    4.0550 C.3   111  VAL111      0.0019
     71  CG2       28.1630   12.1340    5.0380 C.3   111  VAL111      0.0019
     72  N         23.5710   13.3430   -0.0340 N.3   114  PHE114     -0.1241
     73  CA        24.3210   12.7400   -1.0950 C.3   114  PHE114      0.1605
     74  C         23.4210   11.6450   -1.6430 C.2   114  PHE114      0.2264
     75  O         23.7470   10.5040   -1.8690 O.2   114  PHE114     -0.2867
     76  CB        25.6190   12.1910   -0.4970 C.3   114  PHE114      0.0534
     77  CG        26.8280   13.1330   -0.4630 C.ar  114  PHE114     -0.0203
     78  CD1       26.8100   14.3260    0.2610 C.ar  114  PHE114     -0.0042
     79  CD2       28.0240   12.8300   -1.1140 C.ar  114  PHE114     -0.0042
     80  CE1       27.9390   15.1420    0.3280 C.ar  114  PHE114     -0.0003
     81  CE2       29.1650   13.6320   -1.0860 C.ar  114  PHE114     -0.0003
     82  CZ        29.1100   14.8120   -0.3520 C.ar  114  PHE114     -0.0000
     83  N         24.3430    9.6740   -4.6320 N.3   117  SER117     -0.1202
     84  CA        25.4350    8.7020   -4.3690 C.3   117  SER117      0.2020
     85  C         24.9410    7.5630   -3.5210 C.2   117  SER117      0.2618
     86  O         25.4070    6.4290   -3.6550 O.2   117  SER117     -0.2717
     87  CB        26.6010    9.2630   -3.6140 C.3   117  SER117      0.2103
     88  OG        27.1850   10.2970   -4.3480 O.3   117  SER117     -0.2182
     89  N         23.9930    7.9160   -2.6370 N.am  118  LEU118     -0.1979
     90  CA        23.4330    6.9180   -1.7430 C.3   118  LEU118      0.1596
     91  C         22.8590    5.7870   -2.5460 C.2   118  LEU118      0.2287
     92  O         23.0570    4.5620   -2.3680 O.2   118  LEU118     -0.2864
     93  CB        22.3260    7.5740   -0.8830 C.3   118  LEU118      0.0297
     94  CG        22.8640    8.3480    0.3480 C.3   118  LEU118      0.0022
     95  CD1       21.6680    8.9650    1.0590 C.3   118  LEU118      0.0001
     96  CD2       23.6230    7.4480    1.3520 C.3   118  LEU118      0.0001
     97  N         25.4930    3.6650   -4.3570 N.3   121  LEU121     -0.1245
     98  CA        26.2070    2.7230   -3.4840 C.3   121  LEU121      0.1561
     99  C         25.2690    1.5500   -3.1360 C.2   121  LEU121      0.2260
    100  O         25.6350    0.3610   -3.0670 O.2   121  LEU121     -0.2867
    101  CB        26.5740    3.4860   -2.2070 C.3   121  LEU121      0.0270
    102  CG        27.7790    4.4010   -2.4090 C.3   121  LEU121      0.0019
    103  CD1       27.9870    5.2400   -1.1660 C.3   121  LEU121      0.0001
    104  CD2       29.0150    3.5660   -2.6440 C.3   121  LEU121      0.0001
    105  N         30.5240   11.0040   -6.2760 N.3   133  LEU133     -0.1245
    106  CA        31.0100   11.5510   -5.0120 C.3   133  LEU133      0.1561
    107  C         32.0590   12.6730   -5.1950 C.2   133  LEU133      0.2260
    108  O         32.2260   13.5420   -4.3240 O.2   133  LEU133     -0.2867
    109  CB        31.6480   10.4170   -4.0850 C.3   133  LEU133      0.0270
    110  CG        30.6820    9.5070   -3.2590 C.3   133  LEU133      0.0019
    111  CD1       31.3890    8.1930   -2.8910 C.3   133  LEU133      0.0001
    112  CD2       30.2220   10.1820   -1.9840 C.3   133  LEU133      0.0001
    113  N         35.5100    3.3400   -1.1630 N.3   153  PHE153     -0.1241
    114  CA        34.1520    2.9620   -1.5850 C.3   153  PHE153      0.1605
    115  C         34.1720    2.2410   -2.9240 C.2   153  PHE153      0.2264
    116  O         33.3810    1.3200   -3.2140 O.2   153  PHE153     -0.2867
    117  CB        33.3190    4.2260   -1.8540 C.3   153  PHE153      0.0534
    118  CG        32.7070    4.8370   -0.6210 C.ar  153  PHE153     -0.0203
    119  CD1       32.9360    6.1740   -0.2930 C.ar  153  PHE153     -0.0042
    120  CD2       31.8250    4.0950    0.1810 C.ar  153  PHE153     -0.0042
    121  CE1       32.2760    6.7370    0.8040 C.ar  153  PHE153     -0.0003
    122  CE2       31.1570    4.6420    1.2850 C.ar  153  PHE153     -0.0003
    123  CZ        31.3840    5.9920    1.5830 C.ar  153  PHE153     -0.0000
@<TRIPOS>BOND
     1   105   106    1
     2   107   106    1
     3   107   108    2
     4   106   109    1
     5    83    84    1
     6    84    87    1
     7    84    85    1
     8    97    98    1
     9    88    87    1
    10   109   110    1
    11    86    85    2
    12    85    89   am
    13    98    99    1
    14    98   101    1
    15   110   111    1
    16   110   112    1
    17   116   115    2
    18    99   100    2
    19   115   114    1
    20   104   102    1
    21    89    90    1
    22    91    92    2
    23    91    90    1
    24   102   101    1
    25   102   103    1
    26    75    74    2
    27   117   114    1
    28   117   118    1
    29    90    93    1
    30    74    73    1
    31   114   113    1
    32    79    81   ar
    33    79    77   ar
    34    73    76    1
    35    73    72    1
    36    81    82   ar
    37    93    94    1
    38   118   119   ar
    39   118   120   ar
    40    76    77    1
    41    77    78   ar
    42    82    80   ar
    43   119   121   ar
    44   120   122   ar
    45    78    80   ar
    46    94    95    1
    47    94    96    1
    48    43    41    1
    49   121   123   ar
    50    22    21    1
    51   122   123   ar
    52    23    21    1
    53    57    55   am
    54    21    18    1
    55    41    40    1
    56    41    42    1
    57    56    55    2
    58    55    54    1
    59    37    36    1
    60    37    40    1
    61    37    38    1
    62    68    67    2
    63    18    19    1
    64    18    17    1
    65    20    19    2
    66    38    39    2
    67    54    53    1
    68    19    24   am
    69    67    66    1
    70    70    69    1
    71    66    65    1
    72    66    69    1
    73    24    25    1
    74    53    50    1
    75    69    71    1
    76    44    45    1
    77    16    14    1
    78    45    48    1
    79    45    46    1
    80    25    26    1
    81    25    28    1
    82    27    26    2
    83    12    11    2
    84     9    10    1
    85    10    11    1
    86    10    13    1
    87    50    49    1
    88    50    51    1
    89    14    13    1
    90    14    15    1
    91    46    47    2
    92    28    29    1
    93    51    52    2
    94    51    58   am
    95    30    29   ar
    96    30    32   ar
    97    29    31   ar
    98    58    59    1
    99    64    62    1
   100    32    34   ar
   101    31    33   ar
   102    59    62    1
   103    59    60    1
   104    62    63    1
   105    34    33   ar
   106    34    35    1
   107     7     5    1
   108     8     6    1
   109     6     5    1
   110    60    61    2
   111     4     3    2
   112     5     2    1
   113     2     3    1
   114     2     1    1
