@<TRIPOS>MOLECULE
tmp/1owzA00.pdb
 123 114 0 0 0
SMALL
GASTEIGER

@<TRIPOS>ATOM
      1  N         24.6030    6.9110   12.2940 N.3    78  ILE78      -0.1245
      2  CA        24.2700    6.3030   11.0360 C.3    78  ILE78       0.1561
      3  C         23.1080    5.3970   11.2110 C.2    78  ILE78       0.2260
      4  O         22.1620    5.3710   10.4020 O.2    78  ILE78      -0.2867
      5  CB        25.4220    5.4240   10.5510 C.3    78  ILE78       0.0252
      6  CG1       26.3730    6.3440    9.7750 C.3    78  ILE78       0.0019
      7  CG2       24.8980    4.3510    9.5710 C.3    78  ILE78       0.0019
      8  CD1       27.8120    5.8060    9.6710 C.3    78  ILE78       0.0001
      9  N         20.2910    6.7560    5.9080 N.3    84  LEU84      -0.1245
     10  CA        21.6050    6.1440    6.0180 C.3    84  LEU84       0.1561
     11  C         21.6460    4.6470    6.2600 C.2    84  LEU84       0.2260
     12  O         22.3180    3.9160    5.5600 O.2    84  LEU84      -0.2867
     13  CB        22.3940    6.8770    7.1010 C.3    84  LEU84       0.0270
     14  CG        22.5950    8.3180    6.6910 C.3    84  LEU84       0.0019
     15  CD1       23.5410    8.9820    7.6790 C.3    84  LEU84       0.0001
     16  CD2       23.0760    8.4520    5.2340 C.3    84  LEU84       0.0001
     17  N         21.5900    1.9690    3.5800 N.3    87  VAL87      -0.1231
     18  CA        22.7210    1.8760    2.7250 C.3    87  VAL87       0.1692
     19  C         23.8470    1.2130    3.4670 C.2    87  VAL87       0.2592
     20  O         24.5320    0.3630    2.9410 O.2    87  VAL87      -0.2718
     21  CB        23.1230    3.2560    2.1980 C.3    87  VAL87       0.0266
     22  CG1       24.1970    3.0540    1.1140 C.3    87  VAL87       0.0020
     23  CG2       21.8670    3.9410    1.5960 C.3    87  VAL87       0.0020
     24  N         24.0690    1.7190    4.6500 N.am   88  TYR88      -0.1976
     25  CA        25.1200    1.1840    5.4620 C.3    88  TYR88       0.1639
     26  C         25.0390   -0.3240    5.5870 C.2    88  TYR88       0.2290
     27  O         25.9970   -1.0750    5.4750 O.2    88  TYR88      -0.2864
     28  CB        24.9530    1.8350    6.8300 C.3    88  TYR88       0.0560
     29  CG        26.0890    1.4810    7.7310 C.ar   88  TYR88      -0.0198
     30  CD1       27.3370    2.0930    7.6570 C.ar   88  TYR88      -0.0009
     31  CD2       25.8980    0.4410    8.6270 C.ar   88  TYR88      -0.0009
     32  CE1       28.3490    1.6760    8.5280 C.ar   88  TYR88       0.0417
     33  CE2       26.8740    0.0290    9.5320 C.ar   88  TYR88       0.0417
     34  CZ        28.1100    0.6670    9.4600 C.ar   88  TYR88       0.1957
     35  OH        29.0920    0.2500   10.2860 O.3    88  TYR88      -0.2866
     36  N         26.2830   -2.5640    2.7480 N.3    91  LEU91      -0.1245
     37  CA        27.6990   -2.6640    2.3320 C.3    91  LEU91       0.1561
     38  C         28.5530   -3.6710    3.0820 C.2    91  LEU91       0.2260
     39  O         28.1750   -4.0980    4.2000 O.2    91  LEU91      -0.2867
     40  CB        28.4470   -1.3620    2.6730 C.3    91  LEU91       0.0270
     41  CG        27.7590   -0.1070    2.1350 C.3    91  LEU91       0.0019
     42  CD1       28.0050    1.0660    3.0920 C.3    91  LEU91       0.0001
     43  CD2       28.3370    0.1530    0.7540 C.3    91  LEU91       0.0001
     44  N         32.1300    4.7840    4.9760 N.3    99  ALA99      -0.1245
     45  CA        30.8960    5.5160    5.3580 C.3    99  ALA99       0.1562
     46  C         31.0800    6.1760    6.7000 C.2    99  ALA99       0.2260
     47  O         30.7260    7.3200    6.8830 O.2    99  ALA99      -0.2867
     48  CB        29.6110    4.6550    5.4490 C.3    99  ALA99       0.0290
     49  N         33.3680    9.3920    6.3550 N.3   102  GLN102     -0.1231
     50  CA        32.6950   10.5570    5.8260 C.3   102  GLN102      0.1698
     51  C         31.7990   11.1770    6.8670 C.2   102  GLN102      0.2592
     52  O         31.7780   12.3890    7.0280 O.2   102  GLN102     -0.2718
     53  CB        31.8460   10.1680    4.5860 C.3   102  GLN102      0.0381
     54  CG        31.8120   11.2230    3.4640 C.3   102  GLN102      0.0905
     55  CD        31.0200   10.8700    2.2120 C.2   102  GLN102      0.2608
     56  OE1       30.4980    9.7630    2.0680 O.2   102  GLN102     -0.2717
     57  NE2       30.8780   11.8450    1.3120 N.am  102  GLN102     -0.0878
     58  N         31.0560   10.3340    7.6020 N.am  103  VAL103     -0.1980
     59  CA        30.1900   10.8080    8.6360 C.3   103  VAL103      0.1595
     60  C         30.9250   11.5040    9.7520 C.2   103  VAL103      0.2287
     61  O         30.4390   12.5060   10.2610 O.2   103  VAL103     -0.2864
     62  CB        29.2260    9.7630    9.2500 C.3   103  VAL103      0.0276
     63  CG1       28.4300   10.3950   10.3520 C.3   103  VAL103      0.0022
     64  CG2       28.1750    9.3810    8.2010 C.3   103  VAL103      0.0022
     65  N         26.1710   14.2600    5.0850 N.3   111  VAL111     -0.1245
     66  CA        26.1100   13.0410    4.3160 C.3   111  VAL111      0.1561
     67  C         24.7630   12.7150    3.7830 C.2   111  VAL111      0.2260
     68  O         24.6560   12.2050    2.6550 O.2   111  VAL111     -0.2867
     69  CB        26.7500   11.8670    5.0110 C.3   111  VAL111      0.0252
     70  CG1       27.0190   10.7820    3.9760 C.3   111  VAL111      0.0019
     71  CG2       28.0780   12.3570    5.5930 C.3   111  VAL111      0.0019
     72  N         23.8130   13.4900    0.0640 N.3   114  PHE114     -0.1241
     73  CA        24.5800   12.7840   -0.9290 C.3   114  PHE114      0.1605
     74  C         23.6930   11.6900   -1.4530 C.2   114  PHE114      0.2264
     75  O         24.0580   10.5630   -1.7240 O.2   114  PHE114     -0.2867
     76  CB        25.8500   12.2560   -0.2350 C.3   114  PHE114      0.0534
     77  CG        27.0690   13.1790   -0.2410 C.ar  114  PHE114     -0.0203
     78  CD1       27.1170   14.3020    0.5850 C.ar  114  PHE114     -0.0042
     79  CD2       28.1920   12.9310   -1.0430 C.ar  114  PHE114     -0.0042
     80  CE1       28.2400   15.1340    0.5830 C.ar  114  PHE114     -0.0003
     81  CE2       29.3370   13.7320   -1.0460 C.ar  114  PHE114     -0.0003
     82  CZ        29.3390   14.8650   -0.2300 C.ar  114  PHE114     -0.0000
     83  N         24.5390    9.6570   -4.4790 N.3   117  SER117     -0.1202
     84  CA        25.6710    8.7700   -4.1890 C.3   117  SER117      0.2020
     85  C         25.1820    7.6040   -3.4000 C.2   117  SER117      0.2618
     86  O         25.5120    6.4820   -3.7240 O.2   117  SER117     -0.2717
     87  CB        26.7870    9.4140   -3.3450 C.3   117  SER117      0.2103
     88  OG        27.2050   10.6290   -3.9210 O.3   117  SER117     -0.2182
     89  N         24.3490    7.9170   -2.4130 N.am  118  LEU118     -0.1979
     90  CA        23.7960    6.8910   -1.5670 C.3   118  LEU118      0.1596
     91  C         23.1180    5.8260   -2.3770 C.2   118  LEU118      0.2287
     92  O         23.2330    4.5980   -2.2140 O.2   118  LEU118     -0.2864
     93  CB        22.7140    7.5450   -0.7110 C.3   118  LEU118      0.0297
     94  CG        23.3190    8.2830    0.4690 C.3   118  LEU118      0.0022
     95  CD1       22.1820    8.9650    1.2120 C.3   118  LEU118      0.0001
     96  CD2       24.1990    7.4040    1.4070 C.3   118  LEU118      0.0001
     97  N         25.5390    3.7300   -4.2680 N.3   121  LEU121     -0.1245
     98  CA        26.2990    2.8210   -3.4480 C.3   121  LEU121      0.1561
     99  C         25.3750    1.6450   -3.0800 C.2   121  LEU121      0.2260
    100  O         25.7200    0.4360   -3.0110 O.2   121  LEU121     -0.2867
    101  CB        26.7280    3.6060   -2.2130 C.3   121  LEU121      0.0270
    102  CG        27.9510    4.4850   -2.4080 C.3   121  LEU121      0.0019
    103  CD1       28.1970    5.1970   -1.0900 C.3   121  LEU121      0.0001
    104  CD2       29.2030    3.6320   -2.5380 C.3   121  LEU121      0.0001
    105  N         30.6000   10.9510   -6.2220 N.3   133  LEU133     -0.1245
    106  CA        31.0880   11.5180   -4.9740 C.3   133  LEU133      0.1561
    107  C         32.1040   12.6670   -5.1810 C.2   133  LEU133      0.2260
    108  O         32.2710   13.5900   -4.3600 O.2   133  LEU133     -0.2867
    109  CB        31.7350   10.3900   -4.0530 C.3   133  LEU133      0.0270
    110  CG        30.7960    9.4310   -3.2510 C.3   133  LEU133      0.0019
    111  CD1       31.5150    8.1380   -2.8480 C.3   133  LEU133      0.0001
    112  CD2       30.3600   10.0920   -1.9310 C.3   133  LEU133      0.0001
    113  N         35.5970    3.3610   -1.2050 N.3   153  PHE153     -0.1241
    114  CA        34.2510    3.0000   -1.6110 C.3   153  PHE153      0.1605
    115  C         34.2720    2.3080   -2.9480 C.2   153  PHE153      0.2264
    116  O         33.5050    1.3820   -3.2280 O.2   153  PHE153     -0.2867
    117  CB        33.4070    4.2600   -1.8740 C.3   153  PHE153      0.0534
    118  CG        32.7800    4.8590   -0.6370 C.ar  153  PHE153     -0.0203
    119  CD1       32.9840    6.2080   -0.3330 C.ar  153  PHE153     -0.0042
    120  CD2       31.9310    4.0990    0.1790 C.ar  153  PHE153     -0.0042
    121  CE1       32.3720    6.7690    0.7930 C.ar  153  PHE153     -0.0003
    122  CE2       31.3020    4.6470    1.3040 C.ar  153  PHE153     -0.0003
    123  CZ        31.5230    5.9990    1.5940 C.ar  153  PHE153     -0.0000
@<TRIPOS>BOND
     1   105   106    1
     2   107   106    1
     3   107   108    2
     4   106   109    1
     5    83    84    1
     6    97    98    1
     7    84    85    1
     8    84    87    1
     9   109   110    1
    10    88    87    1
    11    86    85    2
    12    98    99    1
    13    98   101    1
    14    85    89   am
    15   110   111    1
    16   110   112    1
    17   116   115    2
    18    99   100    2
    19   115   114    1
    20   104   102    1
    21    89    90    1
    22   102   101    1
    23   102   103    1
    24    91    92    2
    25    91    90    1
    26   117   114    1
    27   117   118    1
    28    75    74    2
    29   114   113    1
    30    90    93    1
    31    74    73    1
    32    81    79   ar
    33    81    82   ar
    34    79    77   ar
    35    73    76    1
    36    73    72    1
    37    93    94    1
    38   118   119   ar
    39   118   120   ar
    40   119   121   ar
    41    77    76    1
    42    77    78   ar
    43    82    80   ar
    44   120   122   ar
    45    94    95    1
    46    94    96    1
    47    80    78   ar
    48    43    41    1
    49   121   123   ar
    50    22    21    1
    51   122   123   ar
    52    57    55   am
    53    23    21    1
    54    56    55    2
    55    41    40    1
    56    41    42    1
    57    21    18    1
    58    55    54    1
    59    37    40    1
    60    37    36    1
    61    37    38    1
    62    68    67    2
    63    18    19    1
    64    18    17    1
    65    20    19    2
    66    38    39    2
    67    54    53    1
    68    19    24   am
    69    67    66    1
    70    70    69    1
    71    66    69    1
    72    66    65    1
    73    53    50    1
    74    24    25    1
    75    44    45    1
    76    69    71    1
    77    16    14    1
    78    45    48    1
    79    45    46    1
    80    25    26    1
    81    25    28    1
    82    27    26    2
    83    12    11    2
    84    50    49    1
    85    50    51    1
    86     9    10    1
    87    10    11    1
    88    10    13    1
    89    14    13    1
    90    14    15    1
    91    46    47    2
    92    28    29    1
    93    51    52    2
    94    51    58   am
    95    58    59    1
    96    30    29   ar
    97    30    32   ar
    98    29    31   ar
    99    64    62    1
   100    32    34   ar
   101    31    33   ar
   102    59    62    1
   103    59    60    1
   104    62    63    1
   105    34    33   ar
   106    34    35    1
   107     7     5    1
   108     8     6    1
   109    60    61    2
   110     6     5    1
   111     4     3    2
   112     5     2    1
   113     2     3    1
   114     2     1    1
