@<TRIPOS>MOLECULE
tmp/1ox1A00.pdb
 235 232 0 0 0
SMALL
GASTEIGER

@<TRIPOS>ATOM
      1  N          9.9860   -4.8070   41.9760 N.3    22  TYR22      -0.1227
      2  CA         9.7600   -3.7170   41.0140 C.3    22  TYR22       0.1736
      3  C         10.3400   -4.1780   39.6620 C.2    22  TYR22       0.2595
      4  O         11.2010   -5.0660   39.6090 O.2    22  TYR22      -0.2718
      5  CB        10.4620   -2.4060   41.4400 C.3    22  TYR22       0.0548
      6  CG        11.9700   -2.5200   41.6300 C.ar   22  TYR22      -0.0200
      7  CD1       12.4990   -3.0710   42.8060 C.ar   22  TYR22      -0.0009
      8  CD2       12.8630   -2.1380   40.6240 C.ar   22  TYR22      -0.0009
      9  CE1       13.8710   -3.2500   42.9750 C.ar   22  TYR22       0.0417
     10  CE2       14.2540   -2.3160   40.7890 C.ar   22  TYR22       0.0417
     11  CZ        14.7390   -2.8710   41.9600 C.ar   22  TYR22       0.1957
     12  OH        16.0900   -3.0750   42.1460 O.3    22  TYR22      -0.2866
     13  N          9.8720   -3.5660   38.5820 N.am   23  HIS23      -0.1961
     14  CA        10.3550   -3.8990   37.2480 C.3    23  HIS23       0.1787
     15  C         11.7390   -3.2680   37.0750 C.2    23  HIS23       0.2620
     16  O         11.9110   -2.0790   37.3300 O.2    23  HIS23      -0.2715
     17  CB         9.4210   -3.3230   36.1900 C.3    23  HIS23       0.0785
     18  CG         9.9930   -3.3570   34.8070 C.ar   23  HIS23       0.0821
     19  ND1        9.9640   -4.4890   34.0140 N.ar   23  HIS23      -0.2267
     20  CD2       10.6940   -2.4260   34.1100 C.ar   23  HIS23       0.1154
     21  CE1       10.6290   -4.2550   32.8930 C.ar   23  HIS23       0.1986
     22  NE2       11.0810   -3.0130   32.9250 N.ar   23  HIS23      -0.2212
     23  N         12.7230   -4.0450   36.6570 N.am   24  PHE24      -0.1960
     24  CA        14.0580   -3.4720   36.4550 C.3    24  PHE24       0.1771
     25  C         14.6900   -3.7690   35.0790 C.2    24  PHE24       0.2619
     26  O         15.6010   -3.0630   34.6510 O.2    24  PHE24      -0.2715
     27  CB        15.0220   -3.8730   37.5910 C.3    24  PHE24       0.0574
     28  CG        15.3800   -5.3340   37.6260 C.ar   24  PHE24      -0.0200
     29  CD1       16.4830   -5.8180   36.9200 C.ar   24  PHE24      -0.0042
     30  CD2       14.6130   -6.2320   38.3650 C.ar   24  PHE24      -0.0042
     31  CE1       16.8110   -7.1820   36.9410 C.ar   24  PHE24      -0.0003
     32  CE2       14.9290   -7.5900   38.3990 C.ar   24  PHE24      -0.0003
     33  CZ        16.0370   -8.0750   37.6810 C.ar   24  PHE24      -0.0000
     34  N         14.2020   -4.7910   34.3740 N.am   25  CYS25      -0.1968
     35  CA        14.7380   -5.1120   33.0470 C.3    25  CYS25       0.1712
     36  C         13.7150   -5.9420   32.2880 C.2    25  CYS25       0.2296
     37  O         12.8000   -6.4960   32.8820 O.2    25  CYS25      -0.2864
     38  CB        16.0150   -5.9350   33.1580 C.3    25  CYS25       0.0983
     39  SG        17.5940   -5.0460   33.4110 S.3    25  CYS25      -0.0798
     40  N         24.0040   -7.4110   32.1040 N.3    40  HIS40      -0.1226
     41  CA        24.0450   -6.3710   33.1230 C.3    40  HIS40       0.1752
     42  C         22.7650   -6.3130   33.9430 C.2    40  HIS40       0.2596
     43  O         22.6750   -5.5620   34.9000 O.2    40  HIS40      -0.2718
     44  CB        24.4060   -4.9720   32.5410 C.3    40  HIS40       0.0759
     45  CG        23.3060   -4.3030   31.7640 C.ar   40  HIS40       0.0818
     46  ND1       23.2120   -4.3760   30.3900 N.ar   40  HIS40      -0.2268
     47  CD2       22.2660   -3.5330   32.1720 C.ar   40  HIS40       0.1154
     48  CE1       22.1600   -3.6840   29.9830 C.ar   40  HIS40       0.1986
     49  NE2       21.5690   -3.1610   31.0470 N.ar   40  HIS40      -0.2212
     50  N         21.7750   -7.1190   33.5840 N.am   41  CYS41      -0.1970
     51  CA        20.5360   -7.1350   34.3580 C.3    41  CYS41       0.1712
     52  C         20.6520   -8.2020   35.4450 C.2    41  CYS41       0.2296
     53  O         19.7260   -8.4140   36.2160 O.2    41  CYS41      -0.2864
     54  CB        19.3540   -7.4930   33.4540 C.3    41  CYS41       0.0983
     55  SG        18.9010   -6.1560   32.3150 S.3    41  CYS41      -0.0798
     56  N         21.0840  -10.3040   38.7410 N.3    43  LYS43      -0.1245
     57  CA        20.9660  -10.1150   40.2010 C.3    43  LYS43       0.1561
     58  C         20.3200  -11.3790   40.7610 C.2    43  LYS43       0.2260
     59  O         19.7660  -12.1710   40.0100 O.2    43  LYS43      -0.2867
     60  CB        20.1250   -8.8910   40.5630 C.3    43  LYS43       0.0271
     61  CG        18.6680   -9.0570   40.2430 C.3    43  LYS43       0.0035
     62  CD        17.8440   -7.9700   40.9180 C.3    43  LYS43       0.0206
     63  CE        18.1780   -6.5910   40.3930 C.3    43  LYS43       0.1093
     64  NZ        17.3170   -5.5740   41.0700 N.3    43  LYS43      -0.1314
     65  N         31.3900  -11.9320   29.4650 N.3    76  TYR76      -0.1241
     66  CA        30.7660  -10.6330   29.6370 C.3    76  TYR76       0.1605
     67  C         31.7920   -9.7060   30.3210 C.2    76  TYR76       0.2264
     68  O         32.4130  -10.0920   31.3030 O.2    76  TYR76      -0.2867
     69  CB        29.5380  -10.7800   30.5380 C.3    76  TYR76       0.0534
     70  CG        29.0230   -9.4590   31.0530 C.ar   76  TYR76      -0.0201
     71  CD1       28.9610   -9.1990   32.4180 C.ar   76  TYR76      -0.0009
     72  CD2       28.5990   -8.4660   30.1650 C.ar   76  TYR76      -0.0009
     73  CE1       28.4910   -7.9800   32.8920 C.ar   76  TYR76       0.0417
     74  CE2       28.1180   -7.2480   30.6240 C.ar   76  TYR76       0.0417
     75  CZ        28.0670   -7.0080   31.9810 C.ar   76  TYR76       0.1957
     76  OH        27.5900   -5.7910   32.4280 O.3    76  TYR76      -0.2866
     77  N         31.9200   -6.0900   32.0990 N.3    78  SER78      -0.1217
     78  CA        31.0990   -4.9650   32.5500 C.3    78  SER78       0.1889
     79  C         31.6220   -3.5830   32.1740 C.2    78  SER78       0.2288
     80  O         30.8660   -2.6080   32.1910 O.2    78  SER78      -0.2866
     81  CB        30.8990   -5.0290   34.0640 C.3    78  SER78       0.2089
     82  OG        32.1430   -5.0120   34.7410 O.3    78  SER78      -0.2183
     83  N         30.8470   -3.7540   28.0920 N.3    81  LEU81      -0.1245
     84  CA        29.5270   -4.2990   27.7980 C.3    81  LEU81       0.1561
     85  C         29.5970   -5.2780   26.6220 C.2    81  LEU81       0.2260
     86  O         28.5940   -5.5970   25.9940 O.2    81  LEU81      -0.2867
     87  CB        28.5190   -3.1730   27.5440 C.3    81  LEU81       0.0270
     88  CG        28.2500   -2.3490   28.8150 C.3    81  LEU81       0.0019
     89  CD1       27.3760   -1.1600   28.4720 C.3    81  LEU81       0.0001
     90  CD2       27.5610   -3.2070   29.8770 C.3    81  LEU81       0.0001
     91  N          7.8310    6.5540   34.0470 N.3   131  TYR131     -0.1241
     92  CA         7.6570    5.1400   33.7390 C.3   131  TYR131      0.1605
     93  C          6.2070    4.8330   33.4450 C.2   131  TYR131      0.2264
     94  O          5.3280    5.2280   34.1950 O.2   131  TYR131     -0.2867
     95  CB         8.1310    4.3050   34.9070 C.3   131  TYR131      0.0534
     96  CG         9.5950    4.4750   35.1610 C.ar  131  TYR131     -0.0201
     97  CD1       10.5360    4.0110   34.2400 C.ar  131  TYR131     -0.0009
     98  CD2       10.0490    5.1120   36.3110 C.ar  131  TYR131     -0.0009
     99  CE1       11.8940    4.1720   34.4610 C.ar  131  TYR131      0.0417
    100  CE2       11.4030    5.2830   36.5420 C.ar  131  TYR131      0.0417
    101  CZ        12.3220    4.8090   35.6150 C.ar  131  TYR131      0.1957
    102  OH        13.6690    4.9520   35.8490 O.3   131  TYR131     -0.2866
    103  N         29.7630    6.2470   18.1250 N.3   152  TYR152     -0.1241
    104  CA        30.4290    5.7830   19.3430 C.3   152  TYR152      0.1605
    105  C         31.8160    5.2500   18.9970 C.2   152  TYR152      0.2264
    106  O         32.0890    4.0540   19.1550 O.2   152  TYR152     -0.2867
    107  CB        29.6160    4.6540   19.9890 C.3   152  TYR152      0.0534
    108  CG        28.2230    5.0640   20.4170 C.ar  152  TYR152     -0.0201
    109  CD1       27.0980    4.6580   19.7050 C.ar  152  TYR152     -0.0009
    110  CD2       28.0360    5.8310   21.5550 C.ar  152  TYR152     -0.0009
    111  CE1       25.8120    5.0120   20.1360 C.ar  152  TYR152      0.0417
    112  CE2       26.7660    6.1870   21.9910 C.ar  152  TYR152      0.0417
    113  CZ        25.6630    5.7730   21.2840 C.ar  152  TYR152      0.1957
    114  OH        24.4180    6.1180   21.7480 O.3   152  TYR152     -0.2866
    115  N         33.9790    2.2240   20.7430 N.3   155  GLN155     -0.1245
    116  CA        33.1410    1.5490   21.7410 C.3   155  GLN155      0.1566
    117  C         32.2610    0.4340   21.2010 C.2   155  GLN155      0.2260
    118  O         31.6090   -0.2670   21.9710 O.2   155  GLN155     -0.2867
    119  CB        32.2310    2.5500   22.4380 C.3   155  GLN155      0.0367
    120  CG        32.9390    3.5560   23.3100 C.3   155  GLN155      0.0905
    121  CD        31.9560    4.5280   23.9550 C.2   155  GLN155      0.2608
    122  OE1       31.3960    5.3880   23.2870 O.2   155  GLN155     -0.2717
    123  NE2       31.7370    4.3800   25.2560 N.am  155  GLN155     -0.0878
    124  N         13.7240    6.1610   20.9110 N.3   171  ASP171     -0.1225
    125  CA        14.8160    5.3020   21.3760 C.3   171  ASP171      0.1805
    126  C         14.3450    4.3930   22.5160 C.2   171  ASP171      0.2598
    127  O         13.2520    4.5910   23.0500 O.2   171  ASP171     -0.2718
    128  CB        15.9110    6.2200   21.9220 C.3   171  ASP171      0.1424
    129  CG        17.2580    5.5490   22.0330 C.2   171  ASP171      0.3668
    130  OD1       18.1740    6.2160   22.5420 O.co2 171  ASP171     -0.2456
    131  OD2       17.4160    4.3740   21.6290 O.co2 171  ASP171     -0.2456
    132  N         15.1500    3.3970   22.8720 N.am  172  SER172     -0.1938
    133  CA        14.8120    2.5900   24.0420 C.3   172  SER172      0.2055
    134  C         15.4670    3.4350   25.1640 C.2   172  SER172      0.2643
    135  O         16.2330    4.3630   24.8650 O.2   172  SER172     -0.2714
    136  CB        15.4190    1.1840   23.9600 C.3   172  SER172      0.2130
    137  OG        16.8170    1.2260   23.6630 O.3   172  SER172     -0.2179
    138  N         15.1920    3.1340   26.4310 N.am  173  CYS173     -0.1953
    139  CA        15.7360    3.9380   27.5270 C.3   173  CYS173      0.1843
    140  C         15.8060    3.1210   28.8380 C.2   173  CYS173      0.2625
    141  O         15.5100    1.9160   28.8320 O.2   173  CYS173     -0.2714
    142  CB        14.8400    5.1700   27.6840 C.3   173  CYS173      0.0997
    143  SG        15.5160    6.5810   28.6290 S.3   173  CYS173     -0.0797
    144  N         16.1910    3.7520   29.9520 N.am  174  GLN174     -0.1963
    145  CA        16.2990    3.0180   31.2210 C.3   174  GLN174      0.1733
    146  C         15.0420    2.2340   31.5640 C.2   174  GLN174      0.2616
    147  O         13.9310    2.7770   31.5520 O.2   174  GLN174     -0.2715
    148  CB        16.6490    3.9580   32.3770 C.3   174  GLN174      0.0408
    149  CG        18.1470    4.2250   32.5020 C.3   174  GLN174      0.0908
    150  CD        18.7120    4.9720   31.2860 C.2   174  GLN174      0.2608
    151  OE1       18.0890    5.9200   30.7800 O.2   174  GLN174     -0.2717
    152  NE2       19.9050    4.5640   30.8280 N.am  174  GLN174     -0.0878
    153  N         15.2340    0.9560   31.8820 N.am  175  GLY175     -0.1955
    154  CA        14.1150    0.0900   32.1910 C.3   175  GLY175      0.1869
    155  C         13.8040   -0.8460   31.0180 C.2   175  GLY175      0.2309
    156  O         13.0960   -1.8520   31.1780 O.2   175  GLY175     -0.2863
    157  N         16.3300   -2.2000   29.1610 N.3   177  SER177     -0.1217
    158  CA        17.4500   -3.1500   29.0710 C.3   177  SER177      0.1889
    159  C         17.0240   -4.6180   29.1580 C.2   177  SER177      0.2288
    160  O         16.1770   -4.9710   29.9780 O.2   177  SER177     -0.2866
    161  CB        18.4570   -2.9120   30.2040 C.3   177  SER177      0.2089
    162  OG        19.4200   -1.9620   29.8350 O.3   177  SER177     -0.2183
    163  N         18.2960   -5.1360   24.2020 N.3   191  VAL191     -0.1231
    164  CA        18.5240   -3.7500   24.6240 C.3   191  VAL191      0.1692
    165  C         19.7210   -3.7020   25.5950 C.2   191  VAL191      0.2593
    166  O         19.7170   -4.3310   26.6650 O.2   191  VAL191     -0.2718
    167  CB        17.2600   -3.1560   25.2970 C.3   191  VAL191      0.0266
    168  CG1       17.5240   -1.7210   25.7520 C.3   191  VAL191      0.0020
    169  CG2       16.0880   -3.1830   24.3130 C.3   191  VAL191      0.0020
    170  N         20.7530   -2.9560   25.2260 N.am  192  SER192     -0.1938
    171  CA        21.9460   -2.9200   26.0700 C.3   192  SER192      0.2055
    172  C         22.3370   -1.5490   26.6210 C.2   192  SER192      0.2643
    173  O         22.2120   -1.3140   27.8280 O.2   192  SER192     -0.2714
    174  CB        23.1230   -3.5510   25.2930 C.3   192  SER192      0.2130
    175  OG        24.3000   -3.6260   26.0830 O.3   192  SER192     -0.2179
    176  N         22.7880   -0.6280   25.7640 N.am  193  TRP193     -0.1959
    177  CA        23.2170    0.6720   26.2660 C.3   193  TRP193      0.1771
    178  C         23.0920    1.7960   25.2450 C.2   193  TRP193      0.2620
    179  O         22.6920    1.5720   24.1040 O.2   193  TRP193     -0.2715
    180  CB        24.6770    0.5920   26.7630 C.3   193  TRP193      0.0590
    181  CG        25.6950    0.2220   25.7050 C.ar  193  TRP193      0.0006
    182  CD1       25.9720   -1.0310   25.2210 C.ar  193  TRP193      0.0946
    183  CD2       26.5650    1.1200   25.0020 C.ar  193  TRP193      0.0152
    184  NE1       26.9670   -0.9650   24.2570 N.ar  193  TRP193     -0.2442
    185  CE2       27.3380    0.3460   24.1030 C.ar  193  TRP193      0.0810
    186  CE3       26.7610    2.5070   25.0400 C.ar  193  TRP193      0.0012
    187  CZ2       28.2960    0.9190   23.2480 C.ar  193  TRP193      0.0191
    188  CZ3       27.7220    3.0800   24.1850 C.ar  193  TRP193      0.0001
    189  CH2       28.4670    2.2880   23.3040 C.ar  193  TRP193      0.0015
    190  N         23.4290    3.0050   25.6750 N.am  194  GLY194     -0.1940
    191  CA        23.3650    4.1550   24.8010 C.3   194  GLY194      0.2014
    192  C         23.7810    5.3640   25.6100 C.2   194  GLY194      0.2640
    193  O         23.9470    5.2780   26.8410 O.2   194  GLY194     -0.2714
    194  N         23.9610    6.4900   24.9310 N.am  195  SER195     -0.1935
    195  CA        24.3440    7.7220   25.6090 C.3   195  SER195      0.2055
    196  C         23.0570    8.5100   25.7800 C.2   195  SER195      0.2643
    197  O         22.5320    9.0770   24.8130 O.2   195  SER195     -0.2714
    198  CB        25.3510    8.4870   24.7600 C.3   195  SER195      0.2130
    199  OG        25.8140    9.6040   25.4740 O.3   195  SER195     -0.2179
    200  N         22.5380    8.5290   27.0080 N.am  196  GLY196     -0.1954
    201  CA        21.2780    9.2040   27.2720 C.3   196  GLY196      0.1869
    202  C         20.1780    8.4250   26.5610 C.2   196  GLY196      0.2309
    203  O         20.3330    7.2240   26.3120 O.2   196  GLY196     -0.2863
    204  N         22.9900    9.8760   18.7610 N.3   202  LYS202     -0.1245
    205  CA        23.3520    8.9020   19.7780 C.3   202  LYS202      0.1561
    206  C         22.3000    7.8080   19.7700 C.2   202  LYS202      0.2260
    207  O         21.3990    7.7770   20.6190 O.2   202  LYS202     -0.2867
    208  CB        23.4170    9.5610   21.1680 C.3   202  LYS202      0.0271
    209  CG        24.5430   10.5710   21.3220 C.3   202  LYS202      0.0035
    210  CD        25.8870    9.8890   21.0970 C.3   202  LYS202      0.0206
    211  CE        27.0360   10.8850   20.9970 C.3   202  LYS202      0.1093
    212  NZ        28.3370   10.1630   20.7940 N.3   202  LYS202     -0.1314
    213  N         20.5760    3.9220   20.0200 N.3   204  GLY204     -0.1210
    214  CA        20.7010    2.8510   20.9980 C.3   204  GLY204      0.1956
    215  C         21.6570    1.7810   20.5010 C.2   204  GLY204      0.2612
    216  O         21.8160    1.5890   19.2960 O.2   204  GLY204     -0.2717
    217  N         22.3250    1.0940   21.4270 N.am  205  VAL205     -0.1965
    218  CA        23.2450    0.0240   21.0660 C.3   205  VAL205      0.1727
    219  C         22.6740   -1.2870   21.6090 C.2   205  VAL205      0.2616
    220  O         22.1850   -1.3560   22.7480 O.2   205  VAL205     -0.2715
    221  CB        24.6660    0.2810   21.6210 C.3   205  VAL205      0.0290
    222  CG1       25.6350   -0.7630   21.0690 C.3   205  VAL205      0.0023
    223  CG2       25.1280    1.6670   21.2280 C.3   205  VAL205      0.0023
    224  N         22.7310   -2.3240   20.7830 N.am  206  TYR206     -0.1974
    225  CA        22.1370   -3.5990   21.1370 C.3   206  TYR206      0.1639
    226  C         23.0600   -4.7830   20.9580 C.2   206  TYR206      0.2290
    227  O         23.8800   -4.7890   20.0460 O.2   206  TYR206     -0.2864
    228  CB        20.8860   -3.8060   20.2600 C.3   206  TYR206      0.0560
    229  CG        19.8960   -2.6670   20.3650 C.ar  206  TYR206     -0.0198
    230  CD1       18.8510   -2.7290   21.2670 C.ar  206  TYR206     -0.0009
    231  CD2       20.0530   -1.4950   19.6090 C.ar  206  TYR206     -0.0009
    232  CE1       17.9720   -1.6610   21.4370 C.ar  206  TYR206      0.0417
    233  CE2       19.1870   -0.4070   19.7640 C.ar  206  TYR206      0.0417
    234  CZ        18.1420   -0.5030   20.6910 C.ar  206  TYR206      0.1957
    235  OH        17.2830    0.5440   20.9200 O.3   206  TYR206     -0.2866
@<TRIPOS>BOND
     1   103   104    1
     2   204   205    1
     3   105   106    2
     4   105   104    1
     5   216   215    2
     6   104   107    1
     7   231   233   ar
     8   231   229   ar
     9   109   111   ar
    10   109   108   ar
    11   233   234   ar
    12   206   205    1
    13   206   207    2
    14   205   208    1
    15   107   108    1
    16   213   214    1
    17   227   226    2
    18   111   113   ar
    19   228   229    1
    20   228   225    1
    21   229   230   ar
    22   108   110   ar
    23   215   214    1
    24   215   217   am
    25   234   235    1
    26   234   232   ar
    27   115   116    1
    28   224   225    1
    29   224   219   am
    30   212   211    1
    31   124   125    1
    32   226   225    1
    33   211   210    1
    34   218   217    1
    35   218   219    1
    36   218   221    1
    37   222   221    1
    38   210   209    1
    39   208   209    1
    40   117   116    1
    41   117   118    2
    42   223   221    1
    43   230   232   ar
    44   113   114    1
    45   113   112   ar
    46   125   128    1
    47   125   126    1
    48   110   112   ar
    49   219   220    2
    50   131   129   ar
    51   116   119    1
    52   128   129    1
    53   129   130   ar
    54   119   120    1
    55   126   132   am
    56   126   127    2
    57   132   133    1
    58   187   189   ar
    59   187   185   ar
    60   122   121    2
    61   189   188   ar
    62   120   121    1
    63   137   136    1
    64   121   123   am
    65   136   133    1
    66   133   134    1
    67   185   184   ar
    68   185   183   ar
    69   179   178    2
    70   188   186   ar
    71   163   164    1
    72   184   182   ar
    73   169   167    1
    74   164   167    1
    75   164   165    1
    76   198   199    1
    77   198   195    1
    78   191   192    1
    79   191   190    1
    80   197   196    2
    81   135   134    2
    82   194   195    1
    83   194   192   am
    84   183   186   ar
    85   183   181   ar
    86   134   138   am
    87   182   181   ar
    88   170   165   am
    89   170   171    1
    90   178   190   am
    91   178   177    1
    92   174   171    1
    93   174   175    1
    94   167   168    1
    95   165   166    2
    96   195   196    1
    97   192   193    2
    98   181   180    1
    99   176   177    1
   100   176   172   am
   101   196   200   am
   102    86    85    2
   103   171   172    1
   104   177   180    1
   105   203   202    2
   106   138   139    1
   107   202   201    1
   108   172   173    2
   109    85    84    1
   110   200   201    1
   111   139   142    1
   112   139   140    1
   113    87    84    1
   114    87    88    1
   115   142   143    1
   116    84    83    1
   117    89    88    1
   118    88    90    1
   119   141   140    2
   120   140   144   am
   121   158   159    1
   122   158   157    1
   123   158   161    1
   124   159   160    2
   125    65    66    1
   126    66    67    1
   127    66    69    1
   128   162   161    1
   129   144   145    1
   130    48    46   ar
   131    48    49   ar
   132    72    74   ar
   133    72    70   ar
   134    67    68    2
   135    46    45   ar
   136    69    70    1
   137    74    75   ar
   138   151   150    2
   139   152   150   am
   140   155   156    2
   141   155   154    1
   142    49    47   ar
   143    70    71   ar
   144   145   146    1
   145   145   148    1
   146   150   149    1
   147   147   146    2
   148   146   153   am
   149    45    47   ar
   150    45    44    1
   151   153   154    1
   152    75    76    1
   153    75    73   ar
   154    77    78    1
   155    40    41    1
   156    79    80    2
   157    79    78    1
   158    36    37    2
   159    36    35    1
   160    55    39    1
   161    55    54    1
   162   148   149    1
   163    71    73   ar
   164    44    41    1
   165    78    81    1
   166    21    22   ar
   167    21    19   ar
   168    22    20   ar
   169    35    38    1
   170    35    34    1
   171    41    42    1
   172    38    39    1
   173    93    92    1
   174    93    94    2
   175    54    51    1
   176    50    42   am
   177    50    51    1
   178    92    91    1
   179    92    95    1
   180    42    43    2
   181    19    18   ar
   182    81    82    1
   183    20    18   ar
   184    97    99   ar
   185    97    96   ar
   186    51    52    1
   187    34    25   am
   188    99   101   ar
   189    26    25    2
   190    18    17    1
   191    95    96    1
   192    25    24    1
   193    96    98   ar
   194    52    53    2
   195   101   102    1
   196   101   100   ar
   197    17    14    1
   198    98   100   ar
   199    24    23    1
   200    24    27    1
   201    23    15   am
   202    29    31   ar
   203    29    28   ar
   204    31    33   ar
   205    15    14    1
   206    15    16    2
   207    14    13    1
   208    27    28    1
   209    28    30   ar
   210    33    32   ar
   211    30    32   ar
   212    13     3   am
   213    56    57    1
   214     4     3    2
   215     3     2    1
   216    59    58    2
   217    57    60    1
   218    57    58    1
   219    61    60    1
   220    61    62    1
   221    63    62    1
   222    63    64    1
   223     8    10   ar
   224     8     6   ar
   225    10    11   ar
   226     2     5    1
   227     2     1    1
   228     5     6    1
   229     6     7   ar
   230    11    12    1
   231    11     9   ar
   232     7     9   ar
