@<TRIPOS>MOLECULE
tmp/1ox4B00.pdb
 81 76 0 0 0
SMALL
GASTEIGER

@<TRIPOS>ATOM
      1  N         72.4990   53.6550   10.2430 N.3   461  ASP461     -0.1225
      2  CA        72.0860   54.3990   11.4260 C.3   461  ASP461      0.1805
      3  C         72.4930   53.7500   12.7420 C.2   461  ASP461      0.2598
      4  O         72.1520   52.5980   13.0110 O.2   461  ASP461     -0.2718
      5  CB        70.5810   54.6230   11.4110 C.3   461  ASP461      0.1424
      6  CG        70.1730   55.7880   12.2790 C.2   461  ASP461      0.3668
      7  OD1       70.3630   55.7100   13.5140 O.co2 461  ASP461     -0.2456
      8  OD2       69.6780   56.7930   11.7240 O.co2 461  ASP461     -0.2456
      9  N         73.2300   54.5070   13.5540 N.am  462  GLY462     -0.1957
     10  CA        73.7010   54.0170   14.8380 C.3   462  GLY462      0.1869
     11  C         74.9920   53.2170   14.7910 C.2   462  GLY462      0.2309
     12  O         75.6320   53.0210   15.8180 O.2   462  GLY462     -0.2863
     13  N         78.0460   53.9070   13.6480 N.3   464  ASN464     -0.1240
     14  CA        79.2980   54.5910   13.9590 C.3   464  ASN464      0.1653
     15  C         80.4350   54.0880   13.0690 C.2   464  ASN464      0.2266
     16  O         81.6010   54.1440   13.4590 O.2   464  ASN464     -0.2867
     17  CB        79.6920   54.3800   15.4280 C.3   464  ASN464      0.1155
     18  CG        78.6260   54.8440   16.4030 C.2   464  ASN464      0.2627
     19  OD1       78.1750   55.9890   16.3550 O.2   464  ASN464     -0.2716
     20  ND2       78.2270   53.9540   17.3080 N.am  464  ASN464     -0.0877
     21  N         73.8220   61.9500    6.6500 N.3   486  SER486     -0.1202
     22  CA        73.4540   61.5930    8.0100 C.3   486  SER486      0.2020
     23  C         73.5290   60.0680    8.1550 C.2   486  SER486      0.2619
     24  O         73.6000   59.3520    7.1590 O.2   486  SER486     -0.2717
     25  CB        72.0450   62.0990    8.3140 C.3   486  SER486      0.2103
     26  OG        71.6820   61.7440    9.6370 O.3   486  SER486     -0.2182
     27  N         73.5320   59.5750    9.3890 N.am  487  SER487     -0.1937
     28  CA        73.6010   58.1290    9.6460 C.3   487  SER487      0.2055
     29  C         74.9670   57.4870    9.4170 C.2   487  SER487      0.2644
     30  O         75.4370   57.3880    8.2750 O.2   487  SER487     -0.2714
     31  CB        72.5740   57.3700    8.7890 C.3   487  SER487      0.2130
     32  OG        71.2530   57.6500    9.2070 O.3   487  SER487     -0.2179
     33  N         75.5850   57.0390   10.5100 N.am  488  GLY488     -0.1939
     34  CA        76.8650   56.3630   10.4260 C.3   488  GLY488      0.2014
     35  C         78.0520   57.0870   11.0210 C.2   488  GLY488      0.2638
     36  O         79.0530   56.4600   11.3650 O.2   488  GLY488     -0.2714
     37  N         77.9560   58.4030   11.1510 N.am  489  ALA489     -0.1977
     38  CA        79.0720   59.1750   11.6790 C.3   489  ALA489      0.1597
     39  C         79.4510   58.7340   13.0810 C.2   489  ALA489      0.2287
     40  O         78.6100   58.7050   13.9770 O.2   489  ALA489     -0.2864
     41  CB        78.7330   60.6590   11.6690 C.3   489  ALA489      0.0319
     42  N         76.0250   65.5080    9.2720 N.3   508  LEU508     -0.1231
     43  CA        75.3220   65.5830   10.5340 C.3   508  LEU508      0.1693
     44  C         75.7770   64.4660   11.4680 C.2   508  LEU508      0.2593
     45  O         75.9750   63.3210   11.0520 O.2   508  LEU508     -0.2718
     46  CB        73.8100   65.4910   10.2900 C.3   508  LEU508      0.0284
     47  CG        72.8610   65.4050   11.4950 C.3   508  LEU508      0.0019
     48  CD1       71.4490   65.7920   11.0420 C.3   508  LEU508      0.0001
     49  CD2       72.8670   63.9860   12.0890 C.3   508  LEU508      0.0001
     50  N         75.9580   64.8210   12.7340 N.am  509  GLY509     -0.1942
     51  CA        76.3490   63.8530   13.7360 C.3   509  GLY509      0.2014
     52  C         75.3720   63.9500   14.8990 C.2   509  GLY509      0.2639
     53  O         74.8440   65.0270   15.1950 O.2   509  GLY509     -0.2714
     54  N         75.1170   62.8350   15.5680 N.am  510  ALA510     -0.1963
     55  CA        74.1850   62.8470   16.6920 C.3   510  ALA510      0.1728
     56  C         74.7930   62.2130   17.9370 C.2   510  ALA510      0.2617
     57  O         75.3510   62.9090   18.7930 O.2   510  ALA510     -0.2715
     58  CB        72.8920   62.1190   16.3030 C.3   510  ALA510      0.0334
     59  N         74.6760   60.8890   18.0270 N.am  511  GLY511     -0.1940
     60  CA        75.2120   60.1620   19.1600 C.3   511  GLY511      0.2014
     61  C         76.6690   60.4430   19.4880 C.2   511  GLY511      0.2638
     62  O         77.0130   60.5950   20.6640 O.2   511  GLY511     -0.2714
     63  N         77.5360   60.5210   18.4810 N.am  512  MET512     -0.1976
     64  CA        78.9420   60.7800   18.7710 C.3   512  MET512      0.1605
     65  C         79.1110   62.1010   19.5200 C.2   512  MET512      0.2287
     66  O         79.9820   62.2270   20.3780 O.2   512  MET512     -0.2864
     67  CB        79.7800   60.7860   17.4870 C.3   512  MET512      0.0413
     68  CG        79.5120   61.9570   16.5470 C.3   512  MET512      0.0598
     69  SD        80.4830   61.8390   15.0570 S.3   512  MET512     -0.1393
     70  CE        82.0950   62.4260   15.6520 C.3   512  MET512      0.0692
     71  N         77.1690   61.5230   23.1610 N.3   515  ARG515     -0.1245
     72  CA        77.8870   60.7210   24.1350 C.3   515  ARG515      0.1563
     73  C         79.2000   61.4010   24.5280 C.2   515  ARG515      0.2260
     74  O         79.9700   60.8650   25.3260 O.2   515  ARG515     -0.2867
     75  CB        78.1690   59.3270   23.5630 C.3   515  ARG515      0.0307
     76  CG        76.9160   58.4960   23.2780 C.3   515  ARG515      0.0489
     77  CD        77.2840   57.0740   22.8830 C.3   515  ARG515      0.2205
     78  NE        77.9870   57.0140   21.6010 N.pl3 515  ARG515     -0.0865
     79  CZ        77.3850   57.0610   20.4150 C.cat 515  ARG515      0.5346
     80  NH1       76.0650   57.1650   20.3440 N.pl3 515  ARG515      0.1354
     81  NH2       78.1020   57.0040   19.3000 N.pl3 515  ARG515      0.1354
@<TRIPOS>BOND
     1    21    22    1
     2    24    23    2
     3    22    23    1
     4    22    25    1
     5    23    27   am
     6    30    29    2
     7    25    26    1
     8    31    32    1
     9    31    28    1
    10    42    43    1
    11    27    28    1
    12    29    28    1
    13    29    33   am
    14     1     2    1
    15    46    43    1
    16    46    47    1
    17    34    33    1
    18    34    35    1
    19    43    44    1
    20    35    37   am
    21    35    36    2
    22    48    47    1
    23    45    44    2
    24    37    38    1
    25     5     2    1
    26     5     6    1
    27     2     3    1
    28    44    50   am
    29    47    49    1
    30    41    38    1
    31    38    39    1
    32     8     6   ar
    33     6     7   ar
    34    50    51    1
    35     3     4    2
    36     3     9   am
    37    15    16    2
    38    15    14    1
    39    39    40    2
    40     9    10    1
    41    13    14    1
    42    51    52    1
    43    14    17    1
    44    11    10    1
    45    11    12    2
    46    52    53    2
    47    52    54   am
    48    69    70    1
    49    69    68    1
    50    17    18    1
    51    54    55    1
    52    58    55    1
    53    19    18    2
    54    18    20   am
    55    68    67    1
    56    55    56    1
    57    67    64    1
    58    56    59   am
    59    56    57    2
    60    59    60    1
    61    63    64    1
    62    63    61   am
    63    64    65    1
    64    60    61    1
    65    81    79    1
    66    61    62    2
    67    65    66    2
    68    80    79    1
    69    79    78    2
    70    78    77    1
    71    77    76    1
    72    71    72    1
    73    76    75    1
    74    75    72    1
    75    72    73    1
    76    73    74    2
