@<TRIPOS>MOLECULE
tmp/1ox9E00.pdb
 189 185 0 0 0
SMALL
GASTEIGER

@<TRIPOS>ATOM
      1  N        -27.0980   17.3090   74.2250 N.3    24  THR24      -0.1218
      2  CA       -27.3640   17.2640   75.6600 C.3    24  THR24       0.1862
      3  C        -28.6890   17.9310   76.0180 C.2    24  THR24       0.2287
      4  O        -28.8080   19.1530   75.9790 O.2    24  THR24      -0.2866
      5  CB       -26.2240   17.9480   76.4690 C.3    24  THR24       0.1770
      6  OG1      -24.9510   17.6390   75.8760 O.3    24  THR24      -0.2211
      7  CG2      -26.2320   17.4490   77.9230 C.3    24  THR24       0.0375
      8  N        -31.6160   19.6370   77.9690 N.3    26  HIS26      -0.1241
      9  CA       -31.6940   20.5310   79.1180 C.3    26  HIS26       0.1621
     10  C        -33.1520   20.8900   79.3280 C.2    26  HIS26       0.2264
     11  O        -33.8890   21.1230   78.3640 O.2    26  HIS26      -0.2867
     12  CB       -30.8970   21.8070   78.8570 C.3    26  HIS26       0.0745
     13  CG       -29.4530   21.7230   79.2480 C.ar   26  HIS26       0.0817
     14  ND1      -28.7550   20.5360   79.2870 N.ar   26  HIS26      -0.2268
     15  CD2      -28.5630   22.6920   79.5690 C.ar   26  HIS26       0.1154
     16  CE1      -27.4960   20.7770   79.6140 C.ar   26  HIS26       0.1986
     17  NE2      -27.3530   22.0770   79.7900 N.ar   26  HIS26      -0.2212
     18  N        -29.9900   27.3830   93.5700 N.3    42  TYR42      -0.1241
     19  CA       -29.5770   27.4060   92.1580 C.3    42  TYR42       0.1605
     20  C        -30.5720   28.0840   91.2110 C.2    42  TYR42       0.2264
     21  O        -30.2330   28.3810   90.0690 O.2    42  TYR42      -0.2867
     22  CB       -29.3120   25.9750   91.6500 C.3    42  TYR42       0.0534
     23  CG       -28.3770   25.1780   92.5270 C.ar   42  TYR42      -0.0201
     24  CD1      -28.7820   24.7500   93.7970 C.ar   42  TYR42      -0.0009
     25  CD2      -27.0640   24.9290   92.1350 C.ar   42  TYR42      -0.0009
     26  CE1      -27.8940   24.1030   94.6660 C.ar   42  TYR42       0.0417
     27  CE2      -26.1660   24.2820   92.9920 C.ar   42  TYR42       0.0417
     28  CZ       -26.5870   23.8770   94.2600 C.ar   42  TYR42       0.1957
     29  OH       -25.7040   23.2800   95.1370 O.3    42  TYR42      -0.2866
     30  N        -32.8230   30.9180   89.5070 N.3    44  ARG44      -0.1245
     31  CA       -32.5960   32.3260   89.1810 C.3    44  ARG44       0.1563
     32  C        -33.7210   32.8890   88.3050 C.2    44  ARG44       0.2260
     33  O        -34.0060   32.3650   87.2210 O.2    44  ARG44      -0.2867
     34  CB       -31.2330   32.5040   88.4910 C.3    44  ARG44       0.0307
     35  CG       -31.0230   31.6530   87.2260 C.3    44  ARG44       0.0489
     36  CD       -31.2000   30.1370   87.4670 C.3    44  ARG44       0.2205
     37  NE       -30.0510   29.3440   87.0180 N.pl3  44  ARG44      -0.0865
     38  CZ       -30.0180   28.0130   86.9840 C.cat  44  ARG44       0.5346
     39  NH1      -31.0770   27.3020   87.3680 N.pl3  44  ARG44       0.1354
     40  NH2      -28.9120   27.3950   86.5780 N.pl3  44  ARG44       0.1354
     41  N        -35.2640   27.4730   86.6780 N.3    48  ILE48      -0.1231
     42  CA       -34.0740   26.7030   87.0130 C.3    48  ILE48       0.1692
     43  C        -33.7990   25.7910   85.8200 C.2    48  ILE48       0.2592
     44  O        -34.7210   25.3460   85.1320 O.2    48  ILE48      -0.2718
     45  CB       -34.2500   25.8830   88.3160 C.3    48  ILE48       0.0266
     46  CG1      -32.9400   25.1490   88.6340 C.3    48  ILE48       0.0019
     47  CG2      -35.4090   24.9070   88.1860 C.3    48  ILE48       0.0020
     48  CD1      -32.7870   24.7500   90.0960 C.3    48  ILE48       0.0001
     49  N        -32.5290   25.5250   85.5610 N.am   49  VAL49      -0.1966
     50  CA       -32.1850   24.7100   84.4120 C.3    49  VAL49       0.1727
     51  C        -31.5760   23.3980   84.8160 C.2    49  VAL49       0.2616
     52  O        -30.5210   23.3560   85.4360 O.2    49  VAL49      -0.2715
     53  CB       -31.1770   25.4210   83.4970 C.3    49  VAL49       0.0290
     54  CG1      -31.2160   24.7890   82.1300 C.3    49  VAL49       0.0023
     55  CG2      -31.4800   26.9160   83.4310 C.3    49  VAL49       0.0023
     56  N        -32.2320   22.3140   84.4520 N.am   50  LEU50      -0.1963
     57  CA       -31.7100   21.0180   84.8020 C.3    50  LEU50       0.1728
     58  C        -31.2460   20.3140   83.5390 C.2    50  LEU50       0.2616
     59  O        -31.9550   20.2770   82.5290 O.2    50  LEU50      -0.2715
     60  CB       -32.7960   20.2310   85.5260 C.3    50  LEU50       0.0311
     61  CG       -33.3500   21.0610   86.6990 C.3    50  LEU50       0.0022
     62  CD1      -34.6020   20.4280   87.2730 C.3    50  LEU50       0.0001
     63  CD2      -32.2640   21.2090   87.7660 C.3    50  LEU50       0.0001
     64  N        -30.0250   19.8020   83.5820 N.am   51  ASN51      -0.1972
     65  CA       -29.4540   19.0870   82.4570 C.3    51  ASN51       0.1688
     66  C        -29.7860   17.6390   82.7320 C.2    51  ASN51       0.2292
     67  O        -29.2460   17.0410   83.6640 O.2    51  ASN51      -0.2864
     68  CB       -27.9370   19.3350   82.3980 C.3    51  ASN51       0.1181
     69  CG       -27.1450   18.1380   81.8700 C.2    51  ASN51       0.2629
     70  OD1      -27.6370   17.3090   81.0900 O.2    51  ASN51      -0.2716
     71  ND2      -25.8900   18.0650   82.2840 N.am   51  ASN51      -0.0877
     72  N        -25.7060   10.9740   81.5980 N.3    55  ARG55      -0.1231
     73  CA       -24.5380   11.0250   82.4880 C.3    55  ARG55       0.1694
     74  C        -24.6500   11.8570   83.7760 C.2    55  ARG55       0.2592
     75  O        -24.0480   11.5120   84.8000 O.2    55  ARG55      -0.2718
     76  CB       -23.2760   11.4560   81.7080 C.3    55  ARG55       0.0321
     77  CG       -23.0200   12.9590   81.5300 C.3    55  ARG55       0.0489
     78  CD       -21.8340   13.2100   80.5730 C.3    55  ARG55       0.2205
     79  NE       -20.6580   12.4430   80.9900 N.pl3  55  ARG55      -0.0865
     80  CZ       -20.1970   11.3440   80.3840 C.cat  55  ARG55       0.5346
     81  NH1      -20.7980   10.8550   79.3020 N.pl3  55  ARG55       0.1354
     82  NH2      -19.1360   10.7140   80.8740 N.pl3  55  ARG55       0.1354
     83  N        -25.4180   12.9420   83.7410 N.am   56  ALA56      -0.1966
     84  CA       -25.5550   13.7970   84.9180 C.3    56  ALA56       0.1728
     85  C        -26.8280   13.5280   85.6680 C.2    56  ALA56       0.2616
     86  O        -27.3140   14.4080   86.3690 O.2    56  ALA56      -0.2715
     87  CB       -25.5190   15.2600   84.5210 C.3    56  ALA56       0.0334
     88  N        -27.3540   12.3130   85.5400 N.am   57  VAL57      -0.1963
     89  CA       -28.6070   11.9570   86.1950 C.3    57  VAL57       0.1727
     90  C        -28.7740   10.4610   86.5380 C.2    57  VAL57       0.2617
     91  O        -28.2540    9.5760   85.8400 O.2    57  VAL57      -0.2715
     92  CB       -29.7800   12.3860   85.3030 C.3    57  VAL57       0.0290
     93  CG1      -29.8020   11.5290   84.0580 C.3    57  VAL57       0.0023
     94  CG2      -31.0660   12.2700   86.0440 C.3    57  VAL57       0.0023
     95  N        -29.5060   10.2030   87.6190 N.am   58  GLY58      -0.1940
     96  CA       -29.7760    8.8430   88.0440 C.3    58  GLY58       0.2014
     97  C        -31.2710    8.5960   88.1630 C.2    58  GLY58       0.2638
     98  O        -32.0370    9.4840   88.5650 O.2    58  GLY58      -0.2714
     99  N        -31.6830    7.3780   87.8240 N.am   59  ASN59      -0.1972
    100  CA       -33.0920    6.9760   87.8720 C.3    59  ASN59       0.1688
    101  C        -33.9870    8.0020   87.1920 C.2    59  ASN59       0.2292
    102  O        -35.0240    8.3950   87.7370 O.2    59  ASN59      -0.2864
    103  CB       -33.5660    6.7890   89.3200 C.3    59  ASN59       0.1181
    104  CG       -32.7970    5.6990   90.0610 C.2    59  ASN59       0.2629
    105  OD1      -32.6140    4.5850   89.5590 O.2    59  ASN59      -0.2716
    106  ND2      -32.3460    6.0220   91.2710 N.am   59  ASN59      -0.0877
    107  N        -35.6380   12.5690   89.2000 N.3    69  PHE69      -0.1227
    108  CA       -34.3110   12.0300   88.9730 C.3    69  PHE69       0.1736
    109  C        -33.3120   12.4590   90.0610 C.2    69  PHE69       0.2595
    110  O        -33.6190   13.2880   90.9420 O.2    69  PHE69      -0.2718
    111  CB       -33.8310   12.5150   87.6080 C.3    69  PHE69       0.0547
    112  CG       -33.7130   14.0140   87.5140 C.ar   69  PHE69      -0.0202
    113  CD1      -32.4910   14.6420   87.6840 C.ar   69  PHE69      -0.0042
    114  CD2      -34.8300   14.7990   87.2720 C.ar   69  PHE69      -0.0042
    115  CE1      -32.3910   16.0260   87.6110 C.ar   69  PHE69      -0.0003
    116  CE2      -34.7310   16.1850   87.2010 C.ar   69  PHE69      -0.0003
    117  CZ       -33.5150   16.7960   87.3690 C.ar   69  PHE69      -0.0000
    118  N        -32.1170   11.8800   89.9860 N.am   70  ASN70      -0.1960
    119  CA       -31.0520   12.2150   90.9170 C.3    70  ASN70       0.1819
    120  C        -29.9020   12.8880   90.1990 C.2    70  ASN70       0.2621
    121  O        -29.4990   12.4760   89.1000 O.2    70  ASN70      -0.2715
    122  CB       -30.5270   10.9770   91.6340 C.3    70  ASN70       0.1195
    123  CG       -31.5880   10.3030   92.4330 C.2    70  ASN70       0.2630
    124  OD1      -32.2780   10.9500   93.2200 O.2    70  ASN70      -0.2716
    125  ND2      -31.7420    8.9950   92.2370 N.am   70  ASN70      -0.0877
    126  N        -29.3790   13.9280   90.8400 N.am   71  ALA71      -0.1963
    127  CA       -28.2630   14.6830   90.3010 C.3    71  ALA71       0.1728
    128  C        -27.4240   15.1590   91.4750 C.2    71  ALA71       0.2616
    129  O        -27.7510   14.8950   92.6380 O.2    71  ALA71      -0.2715
    130  CB       -28.7750   15.8810   89.4900 C.3    71  ALA71       0.0334
    131  N        -26.3310   15.8420   91.1520 N.am   72  ARG72      -0.1963
    132  CA       -25.4420   16.3890   92.1570 C.3    72  ARG72       0.1729
    133  C        -25.5330   17.9030   92.0060 C.2    72  ARG72       0.2616
    134  O        -25.6180   18.4220   90.8860 O.2    72  ARG72      -0.2715
    135  CB       -23.9850   15.9440   91.9340 C.3    72  ARG72       0.0348
    136  CG       -23.7900   14.4760   91.5570 C.3    72  ARG72       0.0492
    137  CD       -22.3150   14.0620   91.6160 C.3    72  ARG72       0.2205
    138  NE       -21.9180   13.6250   92.9620 N.pl3  72  ARG72      -0.0865
    139  CZ       -21.9060   12.3540   93.3830 C.cat  72  ARG72       0.5346
    140  NH1      -22.2650   11.3620   92.5660 N.pl3  72  ARG72       0.1354
    141  NH2      -21.5420   12.0700   94.6330 N.pl3  72  ARG72       0.1354
    142  N        -25.5380   18.6030   93.1340 N.am   73  PHE73      -0.1960
    143  CA       -25.5940   20.0520   93.1330 C.3    73  PHE73       0.1771
    144  C        -24.5080   20.4850   94.1000 C.2    73  PHE73       0.2620
    145  O        -24.5390   20.1450   95.2880 O.2    73  PHE73      -0.2715
    146  CB       -26.9690   20.5480   93.6000 C.3    73  PHE73       0.0574
    147  CG       -28.1050   20.1990   92.6630 C.ar   73  PHE73      -0.0200
    148  CD1      -28.7430   18.9600   92.7360 C.ar   73  PHE73      -0.0042
    149  CD2      -28.5460   21.1210   91.7110 C.ar   73  PHE73      -0.0042
    150  CE1      -29.8090   18.6440   91.8740 C.ar   73  PHE73      -0.0003
    151  CE2      -29.6070   20.8160   90.8460 C.ar   73  PHE73      -0.0003
    152  CZ       -30.2390   19.5760   90.9310 C.ar   73  PHE73      -0.0000
    153  N        -23.5350   21.2210   93.5820 N.am   74  GLY74      -0.1940
    154  CA       -22.4400   21.6500   94.4190 C.3    74  GLY74       0.2014
    155  C        -21.6400   20.4320   94.8510 C.2    74  GLY74       0.2639
    156  O        -21.0080   20.4440   95.9070 O.2    74  GLY74      -0.2714
    157  N        -21.6740   19.3800   94.0320 N.am   75  GLY75      -0.1954
    158  CA       -20.9490   18.1560   94.3260 C.3    75  GLY75       0.1869
    159  C        -21.6960   17.1470   95.1850 C.2    75  GLY75       0.2309
    160  O        -21.1570   16.1010   95.5170 O.2    75  GLY75      -0.2863
    161  N        -25.1910   14.6170   96.0800 N.3    77  PRO77      -0.2102
    162  CA       -26.3400   13.8420   95.6060 C.3    77  PRO77       0.1504
    163  C        -27.6450   14.3930   96.1670 C.2    77  PRO77       0.2575
    164  O        -27.7750   14.5990   97.3680 O.2    77  PRO77      -0.2718
    165  CB       -26.0470   12.4460   96.1380 C.3    77  PRO77       0.0282
    166  CG       -24.5530   12.3910   96.0850 C.3    77  PRO77       0.0208
    167  CD       -24.1800   13.7200   96.6660 C.3    77  PRO77       0.0893
    168  N        -28.6090   14.6330   95.2910 N.am   78  ARG78      -0.1980
    169  CA       -29.9150   15.1670   95.6890 C.3    78  ARG78       0.1597
    170  C        -31.0050   14.5490   94.7960 C.2    78  ARG78       0.2287
    171  O        -30.7530   14.1910   93.6370 O.2    78  ARG78      -0.2864
    172  CB       -29.9340   16.6960   95.5340 C.3    78  ARG78       0.0334
    173  CG       -29.4830   17.5150   96.7400 C.3    78  ARG78       0.0492
    174  CD       -29.3990   18.9960   96.3450 C.3    78  ARG78       0.2205
    175  NE       -30.0250   19.9300   97.2950 N.pl3  78  ARG78      -0.0865
    176  CZ       -31.3220   19.9460   97.6230 C.cat  78  ARG78       0.5346
    177  NH1      -32.1650   19.0690   97.0910 N.pl3  78  ARG78       0.1354
    178  NH2      -31.7920   20.8570   98.4730 N.pl3  78  ARG78       0.1354
    179  N        -28.3270   21.8630   74.7650 N.3    93  ARG93      -0.1245
    180  CA       -27.2930   22.7460   75.3030 C.3    93  ARG93       0.1563
    181  C        -26.3480   23.3180   74.2740 C.2    93  ARG93       0.2260
    182  O        -26.0260   24.4990   74.3320 O.2    93  ARG93      -0.2867
    183  CB       -26.4580   22.0450   76.3750 C.3    93  ARG93       0.0307
    184  CG       -25.4950   22.9760   77.1190 C.3    93  ARG93       0.0489
    185  CD       -24.0570   22.9290   76.5930 C.3    93  ARG93       0.2205
    186  NE       -23.4420   21.6180   76.7830 N.pl3  93  ARG93      -0.0865
    187  CZ       -23.4160   20.9610   77.9450 C.cat  93  ARG93       0.5346
    188  NH1      -23.9700   21.4960   79.0360 N.pl3  93  ARG93       0.1354
    189  NH2      -22.8510   19.7540   78.0150 N.pl3  93  ARG93       0.1354
@<TRIPOS>BOND
     1     1     2    1
     2   181   182    2
     3   181   180    1
     4   179   180    1
     5   180   183    1
     6     2     3    1
     7     2     5    1
     8     6     5    1
     9     4     3    2
    10   183   184    1
    11     5     7    1
    12   185   186    1
    13   185   184    1
    14   186   187    2
    15   187   189    1
    16   187   188    1
    17     8     9    1
    18    11    10    2
    19    12     9    1
    20    12    13    1
    21     9    10    1
    22    13    14   ar
    23    13    15   ar
    24    14    16   ar
    25    81    80    1
    26    15    17   ar
    27    16    17   ar
    28    80    82    1
    29    80    79    2
    30    78    79    1
    31    78    77    1
    32    70    69    2
    33    77    76    1
    34    72    73    1
    35    76    73    1
    36    69    71   am
    37    69    68    1
    38    54    53    1
    39    68    65    1
    40    65    66    1
    41    65    64    1
    42    73    74    1
    43    59    58    2
    44    66    67    2
    45    55    53    1
    46    53    50    1
    47    58    64   am
    48    58    57    1
    49    83    74   am
    50    83    84    1
    51    74    75    2
    52    93    92    1
    53    50    51    1
    54    50    49    1
    55    56    57    1
    56    56    51   am
    57    87    84    1
    58    57    60    1
    59    51    52    2
    60    84    85    1
    61    44    43    2
    62    92    94    1
    63    92    89    1
    64    60    61    1
    65    88    85   am
    66    88    89    1
    67    49    43   am
    68    85    86    2
    69    43    42    1
    70    91    90    2
    71    89    90    1
    72    90    95   am
    73    40    38    1
    74    41    42    1
    75    61    62    1
    76    61    63    1
    77    38    37    2
    78    38    39    1
    79    42    45    1
    80    37    36    1
    81   101   102    2
    82   101   100    1
    83   116   114   ar
    84   116   117   ar
    85    33    32    2
    86    35    36    1
    87    35    34    1
    88   114   112   ar
    89   117   115   ar
    90   112   111    1
    91   112   113   ar
    92   111   108    1
    93   115   113   ar
    94    95    96    1
    95    99   100    1
    96    99    97   am
    97   100   103    1
    98    96    97    1
    99    97    98    2
   100    47    45    1
   101    32    31    1
   102    45    46    1
   103    34    31    1
   104    46    48    1
   105   108   107    1
   106   108   109    1
   107   121   120    2
   108    31    30    1
   109   103   104    1
   110   130   127    1
   111   105   104    2
   112   118   109   am
   113   118   119    1
   114   109   110    2
   115   104   106   am
   116    21    20    2
   117   120   126   am
   118   120   119    1
   119   127   126    1
   120   127   128    1
   121   151   152   ar
   122   151   149   ar
   123   134   133    2
   124   119   122    1
   125   152   150   ar
   126   131   128   am
   127   131   132    1
   128    20    19    1
   129   128   129    2
   130   136   137    1
   131   136   135    1
   132   137   138    1
   133   122   123    1
   134    22    19    1
   135    22    23    1
   136   149   147   ar
   137   150   148   ar
   138   135   132    1
   139   133   132    1
   140   133   142   am
   141    25    23   ar
   142    25    27   ar
   143    19    18    1
   144   125   123   am
   145   123   124    2
   146    23    24   ar
   147   140   139    1
   148   147   148   ar
   149   147   146    1
   150   138   139    2
   151    27    28   ar
   152   143   142    1
   153   143   146    1
   154   143   144    1
   155   139   141    1
   156   153   144   am
   157   153   154    1
   158   171   170    2
   159    24    26   ar
   160   157   158    1
   161   157   155   am
   162   144   145    2
   163    28    26   ar
   164    28    29    1
   165   158   159    1
   166   154   155    1
   167   170   169    1
   168   155   156    2
   169   159   160    2
   170   168   169    1
   171   168   163   am
   172   172   169    1
   173   172   173    1
   174   162   161    1
   175   162   165    1
   176   162   163    1
   177   161   167    1
   178   166   165    1
   179   166   167    1
   180   163   164    2
   181   174   173    1
   182   174   175    1
   183   177   176    1
   184   175   176    2
   185   176   178    1
