@<TRIPOS>MOLECULE
tmp/1oxgA00.pdb
 176 175 0 0 0
SMALL
GASTEIGER

@<TRIPOS>ATOM
      1  N         19.4770   26.8250   40.3200 N.3    40  CYS40      -0.1235
      2  CA        18.8220   25.5580   40.1080 C.3    40  CYS40       0.1677
      3  C         18.1390   25.6800   38.7430 C.2    40  CYS40       0.2270
      4  O         18.0600   26.7640   38.1700 O.2    40  CYS40      -0.2867
      5  CB        17.7590   25.2850   41.2030 C.3    40  CYS40       0.0956
      6  SG        18.3920   24.4980   42.7200 S.3    40  CYS40      -0.0801
      7  N         14.4290   20.9750   47.5650 N.3    55  HIS55      -0.1241
      8  CA        15.6550   21.4120   48.2460 C.3    55  HIS55       0.1621
      9  C         16.2420   22.6890   47.6810 C.2    55  HIS55       0.2264
     10  O         17.0550   23.3260   48.3460 O.2    55  HIS55      -0.2867
     11  CB        16.7380   20.3080   48.2660 C.3    55  HIS55       0.0745
     12  CG        17.5270   20.1970   46.9920 C.ar   55  HIS55       0.0817
     13  ND1       17.2290   19.2760   46.0060 N.ar   55  HIS55      -0.2268
     14  CD2       18.6570   20.8320   46.5830 C.ar   55  HIS55       0.1154
     15  CE1       18.1410   19.3370   45.0510 C.ar   55  HIS55       0.1986
     16  NE2       19.0200   20.2740   45.3770 N.ar   55  HIS55      -0.2212
     17  N         16.3340   13.9900   51.5490 N.3    97  ILE97      -0.1245
     18  CA        15.9720   14.6160   50.2980 C.3    97  ILE97       0.1561
     19  C         14.8230   13.8500   49.5980 C.2    97  ILE97       0.2260
     20  O         14.6130   14.0350   48.3990 O.2    97  ILE97      -0.2867
     21  CB        17.1640   14.7300   49.3380 C.3    97  ILE97       0.0252
     22  CG1       18.4910   15.0190   50.0790 C.3    97  ILE97       0.0019
     23  CG2       16.9340   15.8970   48.3710 C.3    97  ILE97       0.0019
     24  CD1       18.4750   16.2850   50.8870 C.3    97  ILE97       0.0001
     25  N         24.3290    3.1460   46.6180 N.3   168  TRP168     -0.1241
     26  CA        23.8360    4.0980   47.5960 C.3   168  TRP168      0.1605
     27  C         23.1200    3.5410   48.7960 C.2   168  TRP168      0.2264
     28  O         22.7880    4.2770   49.7250 O.2   168  TRP168     -0.2867
     29  CB        22.9280    5.0960   46.8760 C.3   168  TRP168      0.0550
     30  CG        23.5790    6.0920   46.0140 C.ar  168  TRP168      0.0003
     31  CD1       23.3990    6.2640   44.6790 C.ar  168  TRP168      0.0946
     32  CD2       24.5210    7.0710   46.4180 C.ar  168  TRP168      0.0152
     33  NE1       24.1830    7.2970   44.2360 N.ar  168  TRP168     -0.2442
     34  CE2       24.8860    7.8080   45.2780 C.ar  168  TRP168      0.0810
     35  CE3       25.1010    7.4030   47.6230 C.ar  168  TRP168      0.0012
     36  CZ2       25.8070    8.8540   45.3080 C.ar  168  TRP168      0.0191
     37  CZ3       26.0340    8.4330   47.6550 C.ar  168  TRP168      0.0001
     38  CH2       26.3740    9.1500   46.5070 C.ar  168  TRP168      0.0015
     39  N         19.9910    5.1510   51.4740 N.3   171  LYS171     -0.1245
     40  CA        19.6200    6.5150   51.1510 C.3   171  LYS171      0.1561
     41  C         18.5740    6.5310   50.0520 C.2   171  LYS171      0.2260
     42  O         17.8860    7.5320   49.8640 O.2   171  LYS171     -0.2867
     43  CB        20.8380    7.2960   50.6690 C.3   171  LYS171      0.0271
     44  CG        22.0160    7.3850   51.6370 C.3   171  LYS171      0.0035
     45  CD        23.0420    8.2880   50.9730 C.3   171  LYS171      0.0206
     46  CE        24.3400    8.3340   51.7250 C.3   171  LYS171      0.1093
     47  NZ        24.2840    9.0910   53.0060 N.3   171  LYS171     -0.1314
     48  N         27.1420   12.5330   34.2330 N.3   185  SER185     -0.1202
     49  CA        26.5080   12.8260   35.5310 C.3   185  SER185      0.2020
     50  C         25.8300   14.2170   35.6400 C.2   185  SER185      0.2619
     51  O         26.2420   15.2050   34.9980 O.2   185  SER185     -0.2717
     52  CB        27.5080   12.7150   36.6890 C.3   185  SER185      0.2103
     53  OG        26.8730   13.1050   37.9040 O.3   185  SER185     -0.2182
     54  N         24.7810   14.2960   36.4570 N.am  186  SER186     -0.1937
     55  CA        24.1770   15.5950   36.7060 C.3   186  SER186      0.2055
     56  C         25.1320   16.1430   37.7860 C.2   186  SER186      0.2643
     57  O         26.0330   15.4110   38.2960 O.2   186  SER186     -0.2714
     58  CB        22.7310   15.4650   37.1910 C.3   186  SER186      0.2130
     59  OG        21.9170   15.0270   36.1050 O.3   186  SER186     -0.2179
     60  N         24.9800   17.4170   38.1200 N.am  187  CYS187     -0.1953
     61  CA        25.8650   18.0000   39.1120 C.3   187  CYS187      0.1843
     62  C         25.2740   19.2140   39.8070 C.2   187  CYS187      0.2625
     63  O         24.1520   19.6300   39.4940 O.2   187  CYS187     -0.2714
     64  CB        27.2030   18.3510   38.4460 C.3   187  CYS187      0.0997
     65  SG        28.6270   18.5220   39.5580 S.3   187  CYS187     -0.0797
     66  N         25.9870   19.7780   40.7620 N.am  188  MET188     -0.1963
     67  CA        25.4680   20.9580   41.4750 C.3   188  MET188      0.1736
     68  C         25.0490   22.0060   40.4570 C.2   188  MET188      0.2617
     69  O         25.7570   22.2280   39.4690 O.2   188  MET188     -0.2715
     70  CB        26.5020   21.4820   42.4700 C.3   188  MET188      0.0427
     71  CG        26.7310   20.5760   43.6850 C.3   188  MET188      0.0599
     72  SD        28.3120   19.7030   43.6480 S.3   188  MET188     -0.1393
     73  CE        27.7860   18.0400   44.0580 C.3   188  MET188      0.0692
     74  N         23.9120   22.6520   40.6610 N.am  189  GLY189     -0.1955
     75  CA        23.4510   23.6530   39.7300 C.3   189  GLY189      0.1869
     76  C         22.4620   23.0570   38.7330 C.2   189  GLY189      0.2309
     77  O         21.7640   23.7780   38.0380 O.2   189  GLY189     -0.2863
     78  N         20.1440   20.7620   39.8800 N.3   191  SER191     -0.1217
     79  CA        19.0190   20.3180   40.7450 C.3   191  SER191      0.1889
     80  C         17.7260   21.0290   40.4050 C.2   191  SER191      0.2288
     81  O         17.6930   22.2450   40.2550 O.2   191  SER191     -0.2866
     82  CB        19.3410   20.5560   42.2210 C.3   191  SER191      0.2089
     83  OG        20.5610   19.9370   42.5720 O.3   191  SER191     -0.2183
     84  N         16.1730   16.3330   38.8390 N.3   209  VAL209     -0.1231
     85  CA        17.5120   16.2270   39.3600 C.3   209  VAL209      0.1692
     86  C         17.4770   16.5740   40.8760 C.2   209  VAL209      0.2593
     87  O         16.9870   17.6370   41.2820 O.2   209  VAL209     -0.2718
     88  CB        18.4700   17.1500   38.5360 C.3   209  VAL209      0.0266
     89  CG1       19.8890   17.0330   39.1070 C.3   209  VAL209      0.0020
     90  CG2       18.4910   16.8130   37.1350 C.3   209  VAL209      0.0020
     91  N         17.9700   15.6560   41.7140 N.am  210  SER210     -0.1938
     92  CA        17.9270   15.8390   43.1690 C.3   210  SER210      0.2055
     93  C         19.2420   15.8350   43.8800 C.2   210  SER210      0.2643
     94  O         19.5550   16.8070   44.5020 O.2   210  SER210     -0.2714
     95  CB        17.0130   14.7620   43.8030 C.3   210  SER210      0.2130
     96  OG        16.9470   14.8570   45.2180 O.3   210  SER210     -0.2179
     97  N         19.9730   14.7260   43.8470 N.am  211  TRP211     -0.1959
     98  CA        21.2520   14.6610   44.5440 C.3   211  TRP211      0.1771
     99  C         22.1040   13.5190   44.0350 C.2   211  TRP211      0.2620
    100  O         21.6700   12.6490   43.2530 O.2   211  TRP211     -0.2715
    101  CB        21.0220   14.4780   46.0690 C.3   211  TRP211      0.0590
    102  CG        20.3730   13.1340   46.4750 C.ar  211  TRP211      0.0006
    103  CD1       19.0480   12.8560   46.5580 C.ar  211  TRP211      0.0946
    104  CD2       21.0560   11.8940   46.7580 C.ar  211  TRP211      0.0152
    105  NE1       18.8420   11.5360   46.9170 N.ar  211  TRP211     -0.2442
    106  CE2       20.0610   10.9210   47.0430 C.ar  211  TRP211      0.0810
    107  CE3       22.4060   11.5250   46.8180 C.ar  211  TRP211      0.0012
    108  CZ2       20.3680    9.6440   47.4510 C.ar  211  TRP211      0.0191
    109  CZ3       22.7200   10.2150   47.1490 C.ar  211  TRP211      0.0001
    110  CH2       21.7020    9.2890   47.4570 C.ar  211  TRP211      0.0015
    111  N         23.3400   13.5180   44.4990 N.am  212  GLY212     -0.1940
    112  CA        24.2410   12.4690   44.0920 C.3   212  GLY212      0.2014
    113  C         25.6200   12.6560   44.6450 C.2   212  GLY212      0.2640
    114  O         25.8150   13.3240   45.6530 O.2   212  GLY212     -0.2714
    115  N         26.5690   12.0380   43.9570 N.am  213  SER213     -0.1935
    116  CA        27.9880   12.0940   44.2830 C.3   213  SER213      0.2055
    117  C         28.4500   13.5450   44.4600 C.2   213  SER213      0.2644
    118  O         28.2050   14.3820   43.5790 O.2   213  SER213     -0.2714
    119  CB        28.7720   11.3920   43.1880 C.3   213  SER213      0.2130
    120  OG        30.1550   11.3990   43.4750 O.3   213  SER213     -0.2179
    121  N         29.1080   13.8410   45.5770 N.am  214  SER214     -0.1935
    122  CA        29.5840   15.1990   45.8900 C.3   214  SER214      0.2055
    123  C         30.5350   15.7040   44.8350 C.2   214  SER214      0.2644
    124  O         30.7770   16.8830   44.6440 O.2   214  SER214     -0.2714
    125  CB        30.3040   15.2010   47.2270 C.3   214  SER214      0.2130
    126  OG        31.4620   14.3910   47.1960 O.3   214  SER214     -0.2179
    127  N         31.0660   14.6930   44.1840 N.am  215  THR215     -0.1936
    128  CA        32.1140   14.6910   43.1690 C.3   215  THR215      0.2028
    129  C         31.5670   14.6280   41.7400 C.2   215  THR215      0.2642
    130  O         32.3260   14.7930   40.7800 O.2   215  THR215     -0.2714
    131  CB        33.0420   13.5170   43.4790 C.3   215  THR215      0.1808
    132  OG1       34.3750   13.9980   43.6030 O.3   215  THR215     -0.2208
    133  CG2       32.9570   12.4790   42.3680 C.3   215  THR215      0.0379
    134  N         30.2850   14.4060   41.5990 N.am  216  CYS216     -0.1967
    135  CA        29.6590   14.2520   40.2970 C.3   216  CYS216      0.1712
    136  C         30.3830   13.2000   39.4440 C.2   216  CYS216      0.2296
    137  O         30.5990   13.3890   38.2470 O.2   216  CYS216     -0.2864
    138  CB        29.6320   15.6230   39.6480 C.3   216  CYS216      0.0983
    139  SG        28.6760   16.8060   40.6710 S.3   216  CYS216     -0.0798
    140  N         29.1480    6.8390   39.1080 N.3   220  THR220     -0.1204
    141  CA        28.3030    6.6320   40.3070 C.3   220  THR220      0.1979
    142  C         26.9460    7.1500   39.8240 C.2   220  THR220      0.2460
    143  O         26.9200    8.1680   39.1380 O.2   220  THR220     -0.2732
    144  CB        28.7480    7.4840   41.4750 C.3   220  THR220      0.1783
    145  OG1       30.0450    7.0820   41.8460 O.3   220  THR220     -0.2211
    146  CG2       27.8350    7.3180   42.6790 C.3   220  THR220      0.0376
    147  N         25.8430    6.4950   40.0810 N.am  221  PRO221     -0.2717
    148  CA        24.6070    7.0190   39.4720 C.3   221  PRO221      0.1536
    149  C         24.0340    8.2060   40.2040 C.2   221  PRO221      0.2599
    150  O         24.2590    8.3400   41.4010 O.2   221  PRO221     -0.2715
    151  CB        23.6690    5.8040   39.4490 C.3   221  PRO221      0.0310
    152  CG        24.0810    4.9700   40.6560 C.3   221  PRO221      0.0237
    153  CD        25.6210    5.1940   40.7460 C.3   221  PRO221      0.0939
    154  N         23.3350    9.0730   39.4660 N.am  222  GLY222     -0.1941
    155  CA        22.7300   10.2340   40.0670 C.3   222  GLY222      0.2014
    156  C         21.3910    9.8330   40.6130 C.2   222  GLY222      0.2639
    157  O         20.8390    8.7840   40.2540 O.2   222  GLY222     -0.2714
    158  N         20.8690   10.6610   41.5030 N.am  223  VAL223     -0.1963
    159  CA        19.5800   10.3750   42.0730 C.3   223  VAL223      0.1727
    160  C         18.6230   11.5330   41.7020 C.2   223  VAL223      0.2616
    161  O         18.9420   12.7130   41.8770 O.2   223  VAL223     -0.2715
    162  CB        19.6720   10.2040   43.5960 C.3   223  VAL223      0.0290
    163  CG1       18.3760    9.6510   44.1100 C.3   223  VAL223      0.0023
    164  CG2       20.8340    9.2390   43.9630 C.3   223  VAL223      0.0023
    165  N         17.4180   11.1500   41.2440 N.am  224  TYR224     -0.1974
    166  CA        16.3990   12.0640   40.7840 C.3   224  TYR224      0.1639
    167  C         15.0930   11.8090   41.5540 C.2   224  TYR224      0.2290
    168  O         14.8560   10.6870   42.0080 O.2   224  TYR224     -0.2864
    169  CB        16.2040   11.8140   39.2810 C.3   224  TYR224      0.0560
    170  CG        17.5300   11.9240   38.5140 C.ar  224  TYR224     -0.0198
    171  CD1       18.5550   10.9790   38.6210 C.ar  224  TYR224     -0.0009
    172  CD2       17.7440   12.9740   37.6900 C.ar  224  TYR224     -0.0009
    173  CE1       19.7310   11.1100   37.8880 C.ar  224  TYR224      0.0417
    174  CE2       18.8810   13.1350   36.9670 C.ar  224  TYR224      0.0417
    175  CZ        19.8650   12.2060   37.0550 C.ar  224  TYR224      0.1957
    176  OH        20.9880   12.4020   36.2850 O.3   224  TYR224     -0.2866
@<TRIPOS>BOND
     1    48    49    1
     2    51    50    2
     3    49    50    1
     4    49    52    1
     5    50    54   am
     6    59    58    1
     7   176   175    1
     8    54    55    1
     9    52    53    1
    10    55    58    1
    11    55    56    1
    12   174   175   ar
    13   174   172   ar
    14   175   173   ar
    15    90    88    1
    16   172   170   ar
    17    56    60   am
    18    56    57    2
    19   173   171   ar
    20    77    76    2
    21    60    61    1
    22     4     3    2
    23   137   136    2
    24    64    61    1
    25    64    65    1
    26   170   171   ar
    27   170   169    1
    28    88    89    1
    29    88    85    1
    30    76    75    1
    31     3     2    1
    32    84    85    1
    33   140   141    1
    34    61    62    1
    35   143   142    2
    36   169   166    1
    37    85    86    1
    38   136   135    1
    39   151   148    1
    40   151   152    1
    41   154   155    1
    42   154   149   am
    43    69    68    2
    44   148   147    1
    45   148   149    1
    46    63    62    2
    47    65   139    1
    48   138   135    1
    49   138   139    1
    50    75    74    1
    51    62    66   am
    52   142   147   am
    53   142   141    1
    54    78    79    1
    55   155   156    1
    56   147   153    1
    57     2     1    1
    58     2     5    1
    59   149   150    2
    60   157   156    2
    61    81    80    2
    62   135   134    1
    63   141   144    1
    64    80    79    1
    65    68    74   am
    66    68    67    1
    67   156   158   am
    68   152   153    1
    69    79    82    1
    70    66    67    1
    71   130   129    2
    72   166   165    1
    73   166   167    1
    74    86    87    2
    75    86    91   am
    76     5     6    1
    77   165   160   am
    78   144   145    1
    79   144   146    1
    80    67    70    1
    81   158   159    1
    82   167   168    2
    83   134   129   am
    84   160   161    2
    85   160   159    1
    86    91    92    1
    87   129   128    1
    88   159   162    1
    89    82    83    1
    90   133   131    1
    91    70    71    1
    92    92    95    1
    93    92    93    1
    94   128   131    1
    95   128   127    1
    96   119   120    1
    97   119   116    1
    98   100    99    2
    99   131   132    1
   100   118   117    2
   101   162   164    1
   102   162   163    1
   103    72    71    1
   104    72    73    1
   105    95    96    1
   106    97    93   am
   107    97    98    1
   108    93    94    2
   109   115   116    1
   110   115   113   am
   111    99   111   am
   112    99    98    1
   113   112   111    1
   114   112   113    1
   115   127   123   am
   116    33    31   ar
   117    33    34   ar
   118   116   117    1
   119   117   121   am
   120    98   101    1
   121   124   123    2
   122   113   114    2
   123    31    30   ar
   124   123   122    1
   125    15    16   ar
   126    15    13   ar
   127    34    36   ar
   128    34    32   ar
   129    36    38   ar
   130    16    14   ar
   131   121   122    1
   132   122   125    1
   133    13    12   ar
   134    30    32   ar
   135    30    29    1
   136   101   102    1
   137    32    35   ar
   138   102   103   ar
   139   102   104   ar
   140    38    37   ar
   141   103   105   ar
   142    14    12   ar
   143    25    26    1
   144   104   107   ar
   145   104   106   ar
   146   107   109   ar
   147    29    26    1
   148   105   106   ar
   149    12    11    1
   150   106   108   ar
   151   109   110   ar
   152   126   125    1
   153   108   110   ar
   154     7     8    1
   155    26    27    1
   156    35    37   ar
   157     9     8    1
   158     9    10    2
   159     8    11    1
   160    23    21    1
   161    20    19    2
   162    27    28    2
   163    21    22    1
   164    21    18    1
   165    19    18    1
   166    42    41    2
   167    41    40    1
   168    22    24    1
   169    18    17    1
   170    43    40    1
   171    43    44    1
   172    45    44    1
   173    45    46    1
   174    40    39    1
   175    46    47    1
