@<TRIPOS>MOLECULE
tmp/1oxlA00.pdb
 158 156 0 0 0
SMALL
GASTEIGER

@<TRIPOS>ATOM
      1  N         16.2660   15.6100   41.1190 N.3     2  LEU2       -0.1245
      2  CA        15.2310   16.6090   40.8510 C.3     2  LEU2        0.1561
      3  C         13.9390   16.0060   40.3270 C.2     2  LEU2        0.2260
      4  O         12.8530   16.5080   40.6090 O.2     2  LEU2       -0.2867
      5  CB        15.7330   17.6780   39.8530 C.3     2  LEU2        0.0270
      6  CG        17.1130   18.2980   40.0930 C.3     2  LEU2        0.0019
      7  CD1       17.4020   19.4490   39.1330 C.3     2  LEU2        0.0001
      8  CD2       17.2630   18.7720   41.5170 C.3     2  LEU2        0.0001
      9  N         12.1820   14.3410   43.3710 N.3     5  PHE5       -0.1227
     10  CA        11.8560   15.4160   44.3170 C.3     5  PHE5        0.1736
     11  C         10.6740   16.2420   43.7740 C.2     5  PHE5        0.2596
     12  O          9.6910   16.4980   44.4720 O.2     5  PHE5       -0.2718
     13  CB        13.0910   16.2820   44.5580 C.3     5  PHE5        0.0547
     14  CG        12.9450   17.2960   45.6620 C.ar    5  PHE5       -0.0202
     15  CD1       12.0670   17.1020   46.7080 C.ar    5  PHE5       -0.0042
     16  CD2       13.7020   18.4560   45.6420 C.ar    5  PHE5       -0.0042
     17  CE1       11.9640   18.0460   47.7340 C.ar    5  PHE5       -0.0003
     18  CE2       13.5840   19.4010   46.6430 C.ar    5  PHE5       -0.0003
     19  CZ        12.7010   19.1840   47.6880 C.ar    5  PHE5       -0.0000
     20  N         10.7510   16.6140   42.5050 N.am    6  GLY6       -0.1957
     21  CA         9.6940   17.4090   41.9190 C.3     6  GLY6        0.1869
     22  C          8.3670   16.6900   41.9320 C.2     6  GLY6        0.2309
     23  O          7.3260   17.2930   42.1600 O.2     6  GLY6       -0.2863
     24  N          6.9210   16.9210   45.3410 N.3     9  ILE9       -0.1245
     25  CA         6.4810   18.2770   45.6250 C.3     9  ILE9        0.1561
     26  C          5.1090   18.4940   44.9840 C.2     9  ILE9        0.2260
     27  O          4.2220   19.0610   45.6060 O.2     9  ILE9       -0.2867
     28  CB         7.4970   19.2890   45.1170 C.3     9  ILE9        0.0252
     29  CG1        8.7960   19.1480   45.9280 C.3     9  ILE9        0.0019
     30  CG2        6.9250   20.7160   45.1740 C.3     9  ILE9        0.0019
     31  CD1        9.9610   19.8470   45.3550 C.3     9  ILE9        0.0001
     32  N          7.0220   21.9260   40.9800 N.3    17  ALA17      -0.1231
     33  CA         8.1990   22.3090   41.7460 C.3    17  ALA17       0.1694
     34  C          8.9910   23.4070   41.0680 C.2    17  ALA17       0.2591
     35  O          9.4550   24.3370   41.7080 O.2    17  ALA17      -0.2718
     36  CB         9.0730   21.0870   42.0500 C.3    17  ALA17       0.0304
     37  N          9.1180   23.3000   39.7530 N.am   18  ILE18      -0.1980
     38  CA         9.7290   24.3300   38.9500 C.3    18  ILE18       0.1595
     39  C          8.4820   24.7520   38.2000 C.2    18  ILE18       0.2287
     40  O          7.9650   23.9320   37.4560 O.2    18  ILE18      -0.2864
     41  CB        10.7520   23.6920   38.0220 C.3    18  ILE18       0.0276
     42  CG1       11.8080   22.9420   38.8590 C.3    18  ILE18       0.0022
     43  CG2       11.4080   24.7470   37.1360 C.3    18  ILE18       0.0022
     44  CD1       12.8620   22.2070   38.0440 C.3    18  ILE18       0.0001
     45  N          8.8610   26.4790   43.4300 N.3    21  TYR21      -0.1227
     46  CA         9.8090   26.3860   44.5300 C.3    21  TYR21       0.1736
     47  C         11.2540   26.5460   44.0870 C.2    21  TYR21       0.2596
     48  O         12.1400   26.6080   44.9290 O.2    21  TYR21      -0.2718
     49  CB         9.6130   25.0530   45.2490 C.3    21  TYR21       0.0548
     50  CG         8.3450   24.9850   46.0520 C.ar   21  TYR21      -0.0200
     51  CD1        8.2740   25.5420   47.3260 C.ar   21  TYR21      -0.0009
     52  CD2        7.1960   24.3970   45.5370 C.ar   21  TYR21      -0.0009
     53  CE1        7.1290   25.4890   48.0650 C.ar   21  TYR21       0.0417
     54  CE2        6.0390   24.3240   46.2930 C.ar   21  TYR21       0.0417
     55  CZ         6.0010   24.9030   47.5500 C.ar   21  TYR21       0.1957
     56  OH         4.8690   24.8490   48.3350 O.3    21  TYR21      -0.2866
     57  N         11.5040   26.6760   42.7860 N.am   22  SER22      -0.1952
     58  CA        12.8820   26.7150   42.2720 C.3    22  SER22       0.1924
     59  C         13.5770   28.0700   42.3430 C.2    22  SER22       0.2314
     60  O         14.7340   28.1850   41.9420 O.2    22  SER22      -0.2863
     61  CB        12.9040   26.2110   40.8130 C.3    22  SER22       0.2116
     62  OG        11.9560   26.9240   40.0420 O.3    22  SER22      -0.2180
     63  N         17.0600   29.8410   49.9430 N.3    27  TYR27      -0.1227
     64  CA        17.5150   28.4580   49.8640 C.3    27  TYR27       0.1736
     65  C         16.8080   27.5470   48.8750 C.2    27  TYR27       0.2596
     66  O         17.3050   26.4680   48.6280 O.2    27  TYR27      -0.2718
     67  CB        17.4450   27.8040   51.2450 C.3    27  TYR27       0.0548
     68  CG        18.4830   28.4140   52.1560 C.ar   27  TYR27      -0.0200
     69  CD1       18.1870   29.5280   52.9140 C.ar   27  TYR27      -0.0009
     70  CD2       19.7820   27.9180   52.1820 C.ar   27  TYR27      -0.0009
     71  CE1       19.1570   30.1340   53.7110 C.ar   27  TYR27       0.0417
     72  CE2       20.7610   28.5120   52.9710 C.ar   27  TYR27       0.0417
     73  CZ        20.4350   29.6140   53.7360 C.ar   27  TYR27       0.1957
     74  OH        21.4090   30.2050   54.5170 O.3    27  TYR27      -0.2866
     75  N         15.6500   27.9400   48.3670 N.am   28  CYS28      -0.1956
     76  CA        14.9300   27.0970   47.4200 C.3    28  CYS28       0.1843
     77  C         15.3770   27.5080   46.0340 C.2    28  CYS28       0.2626
     78  O         14.7630   28.3560   45.3720 O.2    28  CYS28      -0.2714
     79  CB        13.4320   27.2620   47.4940 C.3    28  CYS28       0.0997
     80  SG        12.6990   27.0800   49.1090 S.3    28  CYS28      -0.0797
     81  N         16.4630   26.8970   45.6240 N.am   29  GLY29      -0.1940
     82  CA        17.1050   27.1910   44.3620 C.3    29  GLY29       0.2014
     83  C         18.5270   26.6940   44.5170 C.2    29  GLY29       0.2639
     84  O         18.7890   25.8380   45.3590 O.2    29  GLY29      -0.2714
     85  N         19.4180   27.1910   43.6700 N.am   30  TRP30      -0.1959
     86  CA        20.8480   26.9100   43.7560 C.3    30  TRP30       0.1771
     87  C         21.4790   27.6050   44.9340 C.2    30  TRP30       0.2620
     88  O         21.1600   28.7550   45.2310 O.2    30  TRP30      -0.2715
     89  CB        21.5450   27.4470   42.5130 C.3    30  TRP30       0.0590
     90  CG        23.0220   27.1570   42.4670 C.ar   30  TRP30       0.0006
     91  CD1       24.0500   28.0340   42.6830 C.ar   30  TRP30       0.0946
     92  CD2       23.6260   25.9010   42.1710 C.ar   30  TRP30       0.0152
     93  NE1       25.2550   27.3920   42.5400 N.ar   30  TRP30      -0.2442
     94  CE2       25.0220   26.0790   42.2240 C.ar   30  TRP30       0.0810
     95  CE3       23.1260   24.6340   41.8640 C.ar   30  TRP30       0.0012
     96  CZ2       25.9140   25.0440   41.9810 C.ar   30  TRP30       0.0191
     97  CZ3       24.0120   23.6090   41.6280 C.ar   30  TRP30       0.0001
     98  CH2       25.3910   23.8180   41.6850 C.ar   30  TRP30       0.0015
     99  N         22.4020   26.9170   45.5900 N.am   31  GLY31      -0.1954
    100  CA        23.1190   27.5020   46.7020 C.3    31  GLY31       0.1869
    101  C         22.2180   27.9070   47.8440 C.2    31  GLY31       0.2309
    102  O         21.1050   27.4050   48.0030 O.2    31  GLY31      -0.2863
    103  N         13.6890   24.5080   52.7180 N.3    44  CYS44      -0.1235
    104  CA        14.7840   24.3490   51.7830 C.3    44  CYS44       0.1677
    105  C         16.1230   24.4120   52.4910 C.2    44  CYS44       0.2270
    106  O         17.0260   23.7160   52.1020 O.2    44  CYS44      -0.2867
    107  CB        14.7400   25.4000   50.6770 C.3    44  CYS44       0.0956
    108  SG        13.2280   25.2230   49.6920 S.3    44  CYS44      -0.0801
    109  N         16.5240   21.0600   53.9230 N.3    47  HIS47      -0.1226
    110  CA        16.7610   20.1280   52.8220 C.3    47  HIS47       0.1752
    111  C         18.2330   20.1680   52.3950 C.2    47  HIS47       0.2596
    112  O         18.8760   19.1340   52.2100 O.2    47  HIS47      -0.2718
    113  CB        15.8420   20.4730   51.6510 C.3    47  HIS47       0.0759
    114  CG        15.8880   19.4810   50.5350 C.ar   47  HIS47       0.0818
    115  ND1       16.4080   19.7820   49.3000 N.ar   47  HIS47      -0.2268
    116  CD2       15.4760   18.1930   50.4680 C.ar   47  HIS47       0.1154
    117  CE1       16.3190   18.7200   48.5160 C.ar   47  HIS47       0.1986
    118  NE2       15.7410   17.7430   49.1970 N.ar   47  HIS47      -0.2212
    119  N         18.7630   21.3740   52.2700 N.am   48  ASP48      -0.1974
    120  CA        20.1670   21.5910   51.9310 C.3    48  ASP48       0.1709
    121  C         21.0740   20.9620   52.9920 C.2    48  ASP48       0.2293
    122  O         22.0780   20.3340   52.6650 O.2    48  ASP48      -0.2864
    123  CB        20.4530   23.0910   51.8810 C.3    48  ASP48       0.1436
    124  CG        20.1340   23.7170   50.5430 C.2    48  ASP48       0.3671
    125  OD1       19.6560   23.0160   49.6230 O.co2  48  ASP48      -0.2456
    126  OD2       20.3380   24.9320   50.3310 O.co2  48  ASP48      -0.2456
    127  N         20.9600   17.1690   52.5350 N.3    51  TYR51      -0.1241
    128  CA        21.8280   16.7840   51.4240 C.3    51  TYR51       0.1605
    129  C         23.3160   16.9140   51.7760 C.2    51  TYR51       0.2264
    130  O         24.1420   16.0910   51.3550 O.2    51  TYR51      -0.2867
    131  CB        21.5470   17.6930   50.2270 C.3    51  TYR51       0.0534
    132  CG        20.4320   17.2370   49.3300 C.ar   51  TYR51      -0.0201
    133  CD1       19.4870   16.2980   49.7300 C.ar   51  TYR51      -0.0009
    134  CD2       20.3240   17.7500   48.0640 C.ar   51  TYR51      -0.0009
    135  CE1       18.4740   15.9000   48.8710 C.ar   51  TYR51       0.0417
    136  CE2       19.3200   17.3530   47.2070 C.ar   51  TYR51       0.0417
    137  CZ        18.3940   16.4430   47.6100 C.ar   51  TYR51       0.1957
    138  OH        17.3850   16.0640   46.7290 O.3    51  TYR51      -0.2866
    139  N         21.4380   15.4930   44.0490 N.3    60  LYS60      -0.1245
    140  CA        20.7350   16.1480   42.9580 C.3    60  LYS60       0.1561
    141  C         20.5990   15.2590   41.7330 C.2    60  LYS60       0.2260
    142  O         19.6420   15.3990   40.9780 O.2    60  LYS60      -0.2867
    143  CB        21.4670   17.4250   42.5560 C.3    60  LYS60       0.0271
    144  CG        21.4770   18.5120   43.6090 C.3    60  LYS60       0.0035
    145  CD        22.0300   19.8120   43.0290 C.3    60  LYS60       0.0206
    146  CE        23.5520   19.9100   43.1520 C.3    60  LYS60       0.1093
    147  NZ        24.2860   18.6190   42.9850 N.3    60  LYS60      -0.1314
    148  N          6.9730   21.5800   52.8400 N.3    96  PHE96      -0.1241
    149  CA         6.3310   22.5780   51.9640 C.3    96  PHE96       0.1605
    150  C          4.8110   22.5400   52.1480 C.2    96  PHE96       0.2264
    151  O          4.1830   23.5710   52.3440 O.2    96  PHE96      -0.2867
    152  CB         6.5920   22.3090   50.4750 C.3    96  PHE96       0.0534
    153  CG         8.0240   22.5040   50.0260 C.ar   96  PHE96      -0.0203
    154  CD1        8.8720   23.3910   50.6600 C.ar   96  PHE96      -0.0042
    155  CD2        8.4870   21.8230   48.9130 C.ar   96  PHE96      -0.0042
    156  CE1       10.1850   23.5630   50.2170 C.ar   96  PHE96      -0.0003
    157  CE2        9.7860   21.9970   48.4570 C.ar   96  PHE96      -0.0003
    158  CZ        10.6420   22.8720   49.1320 C.ar   96  PHE96      -0.0000
@<TRIPOS>BOND
     1    43    41    1
     2    40    39    2
     3    41    42    1
     4    41    38    1
     5    44    42    1
     6    39    38    1
     7    38    37    1
     8     7     6    1
     9    37    34   am
    10     5     6    1
    11     5     2    1
    12    62    61    1
    13     6     8    1
    14     3     4    2
    15     3     2    1
    16    61    58    1
    17     2     1    1
    18   142   141    2
    19    32    33    1
    20    34    35    2
    21    34    33    1
    22    97    98   ar
    23    97    95   ar
    24    98    96   ar
    25   141   140    1
    26    33    36    1
    27    95    92   ar
    28    21    22    1
    29    21    20    1
    30    22    23    2
    31    60    59    2
    32    96    94   ar
    33    92    94   ar
    34    92    90   ar
    35    94    93   ar
    36    58    59    1
    37    58    57    1
    38    90    89    1
    39    90    91   ar
    40    20    11   am
    41    89    86    1
    42    93    91   ar
    43   143   140    1
    44   143   144    1
    45    57    47   am
    46   140   139    1
    47   147   146    1
    48   145   146    1
    49   145   144    1
    50     9    10    1
    51    45    46    1
    52    85    86    1
    53    85    83   am
    54    86    87    1
    55    11    10    1
    56    11    12    2
    57    47    46    1
    58    47    48    2
    59    10    13    1
    60    82    83    1
    61    82    81    1
    62    83    84    2
    63    46    49    1
    64    13    14    1
    65    87    88    2
    66    87    99   am
    67    26    27    2
    68    26    25    1
    69    28    30    1
    70    28    25    1
    71    28    29    1
    72    49    50    1
    73    24    25    1
    74    31    29    1
    75    78    77    2
    76    52    50   ar
    77    52    54   ar
    78    99   100    1
    79    81    77   am
    80    16    14   ar
    81    16    18   ar
    82    14    15   ar
    83    77    76    1
    84    50    51   ar
    85    54    55   ar
    86    18    19   ar
    87   100   101    1
    88    15    17   ar
    89   138   137    1
    90   136   137   ar
    91   136   134   ar
    92    51    53   ar
    93    76    79    1
    94    76    75    1
    95    79    80    1
    96    55    53   ar
    97    55    56    1
    98   137   135   ar
    99    19    17   ar
   100   101   102    2
   101   134   132   ar
   102    75    65   am
   103   157   155   ar
   104   157   158   ar
   105   117   118   ar
   106   117   115   ar
   107    66    65    2
   108   135   133   ar
   109    65    64    1
   110   155   153   ar
   111    80   108    1
   112   158   156   ar
   113   118   116   ar
   114   115   114   ar
   115   132   133   ar
   116   132   131    1
   117   125   124   ar
   118   108   107    1
   119    64    63    1
   120    64    67    1
   121   153   152    1
   122   153   154   ar
   123   156   154   ar
   124   131   128    1
   125   126   124   ar
   126   116   114   ar
   127   152   149    1
   128   114   113    1
   129   124   123    1
   130   107   104    1
   131    67    68    1
   132   130   129    2
   133   128   129    1
   134   128   127    1
   135   113   110    1
   136   104   105    1
   137   104   103    1
   138   123   120    1
   139   120   119    1
   140   120   121    1
   141   149   150    1
   142   149   148    1
   143   106   105    2
   144   150   151    2
   145    68    70   ar
   146    68    69   ar
   147    70    72   ar
   148   112   111    2
   149   119   111   am
   150   111   110    1
   151   122   121    2
   152   110   109    1
   153    69    71   ar
   154    72    73   ar
   155    71    73   ar
   156    73    74    1
