@<TRIPOS>MOLECULE
tmp/1oxmB01.pdb
 112 105 0 0 0
SMALL
GASTEIGER

@<TRIPOS>ATOM
      1  N         25.3250   52.0010   24.4140 N.3    26  SER26      -0.1202
      2  CA        25.8980   53.1520   23.7300 C.3    26  SER26       0.2020
      3  C         25.3770   54.4680   24.2970 C.2    26  SER26       0.2619
      4  O         24.1880   54.6010   24.5760 O.2    26  SER26      -0.2717
      5  CB        25.5850   53.0850   22.2320 C.3    26  SER26       0.2103
      6  OG        26.2490   51.9920   21.6230 O.3    26  SER26      -0.2182
      7  N         26.2890   55.4170   24.4940 N.am   27  THR27      -0.1938
      8  CA        25.9860   56.7580   24.9980 C.3    27  THR27       0.2028
      9  C         25.3580   56.8830   26.3880 C.2    27  THR27       0.2642
     10  O         24.9320   57.9750   26.7630 O.2    27  THR27      -0.2714
     11  CB        25.1220   57.5770   23.9910 C.3    27  THR27       0.1808
     12  OG1       23.7410   57.1950   24.0980 O.3    27  THR27      -0.2208
     13  CG2       25.6040   57.3570   22.5540 C.3    27  THR27       0.0379
     14  N         25.2920   55.7940   27.1500 N.am   28  GLU28      -0.1976
     15  CA        24.7220   55.8700   28.4970 C.3    28  GLU28       0.1602
     16  C         25.7250   56.5020   29.4730 C.2    28  GLU28       0.2287
     17  O         26.9320   56.5010   29.2190 O.2    28  GLU28      -0.2864
     18  CB        24.2630   54.4960   28.9940 C.3    28  GLU28       0.0415
     19  CG        23.1790   53.8700   28.1310 C.3    28  GLU28       0.1163
     20  CD        22.3310   52.8670   28.8780 C.2    28  GLU28       0.3649
     21  OE1       22.8480   51.8130   29.2940 O.co2  28  GLU28      -0.2457
     22  OE2       21.1290   53.1410   29.0540 O.co2  28  GLU28      -0.2457
     23  N         28.9580   55.1850   19.8440 N.3    65  LEU65      -0.1245
     24  CA        27.9530   54.7550   18.8860 C.3    65  LEU65       0.1561
     25  C         28.6010   54.0670   17.6910 C.2    65  LEU65       0.2260
     26  O         28.1350   53.0230   17.2390 O.2    65  LEU65      -0.2867
     27  CB        27.1450   55.9640   18.4390 C.3    65  LEU65       0.0270
     28  CG        25.6920   55.7500   18.0090 C.3    65  LEU65       0.0019
     29  CD1       24.8710   55.0900   19.1110 C.3    65  LEU65       0.0001
     30  CD2       25.1070   57.1070   17.6590 C.3    65  LEU65       0.0001
     31  N         29.7800   50.0740   17.4010 N.3    68  ASN68      -0.1240
     32  CA        28.8010   49.0190   17.1570 C.3    68  ASN68       0.1653
     33  C         29.0590   48.3730   15.7990 C.2    68  ASN68       0.2266
     34  O         28.7070   47.2130   15.5790 O.2    68  ASN68      -0.2867
     35  CB        27.3780   49.5770   17.1890 C.3    68  ASN68       0.1155
     36  CG        26.9210   49.9270   18.5820 C.2    68  ASN68       0.2627
     37  OD1       26.5860   49.0540   19.3790 O.2    68  ASN68      -0.2716
     38  ND2       26.8780   51.2100   18.8760 N.am   68  ASN68      -0.0877
     39  N         23.7590   45.7090   28.1400 N.3   103  TYR103     -0.1227
     40  CA        22.6470   46.1820   27.3240 C.3   103  TYR103      0.1736
     41  C         23.1630   46.7860   26.0200 C.2   103  TYR103      0.2596
     42  O         24.0870   47.6020   26.0370 O.2   103  TYR103     -0.2718
     43  CB        21.8510   47.2140   28.1210 C.3   103  TYR103      0.0548
     44  CG        20.8890   48.0460   27.3180 C.ar  103  TYR103     -0.0200
     45  CD1       19.8400   47.4620   26.6100 C.ar  103  TYR103     -0.0009
     46  CD2       21.0190   49.4310   27.2860 C.ar  103  TYR103     -0.0009
     47  CE1       18.9430   48.2460   25.8870 C.ar  103  TYR103      0.0417
     48  CE2       20.1320   50.2240   26.5740 C.ar  103  TYR103      0.0417
     49  CZ        19.0980   49.6310   25.8770 C.ar  103  TYR103      0.1957
     50  OH        18.2310   50.4310   25.1720 O.3   103  TYR103     -0.2866
     51  N         22.5740   46.3690   24.8980 N.am  104  SER104     -0.1938
     52  CA        22.9520   46.8570   23.5650 C.3   104  SER104      0.2055
     53  C         24.4360   46.5690   23.2660 C.2   104  SER104      0.2642
     54  O         24.8290   45.3950   23.2160 O.2   104  SER104     -0.2714
     55  CB        22.6320   48.3490   23.4470 C.3   104  SER104      0.2130
     56  OG        22.1420   48.6630   22.1580 O.3   104  SER104     -0.2179
     57  N         25.2630   47.6040   23.0900 N.am  105  GLN105     -0.1976
     58  CA        26.6830   47.3710   22.8300 C.3   105  GLN105      0.1601
     59  C         27.2660   46.6500   24.0360 C.2   105  GLN105      0.2287
     60  O         28.1640   45.8120   23.9020 O.2   105  GLN105     -0.2864
     61  CB        27.4490   48.6780   22.6060 C.3   105  GLN105      0.0394
     62  CG        28.9420   48.4410   22.3160 C.3   105  GLN105      0.0908
     63  CD        29.7710   49.7120   22.1590 C.2   105  GLN105      0.2608
     64  OE1       31.0030   49.6500   22.1510 O.2   105  GLN105     -0.2717
     65  NE2       29.1130   50.8610   22.0500 N.am  105  GLN105     -0.0878
     66  N         22.6780   42.8950   20.7200 N.3   134  THR134     -0.1218
     67  CA        23.1220   43.3550   19.4290 C.3   134  THR134      0.1862
     68  C         23.5900   42.2490   18.4620 C.2   134  THR134      0.2287
     69  O         23.4690   42.3750   17.2400 O.2   134  THR134     -0.2866
     70  CB        24.1470   44.4610   19.6950 C.3   134  THR134      0.1770
     71  OG1       23.5830   45.7240   19.3200 O.3   134  THR134     -0.2211
     72  CG2       25.4510   44.2020   19.0470 C.3   134  THR134      0.0375
     73  N         17.7430   45.4510   16.5350 N.3   161  VAL161     -0.1245
     74  CA        19.1320   45.0400   16.7920 C.3   161  VAL161      0.1561
     75  C         19.2050   43.5370   17.1170 C.2   161  VAL161      0.2260
     76  O         20.2290   42.8800   16.8950 O.2   161  VAL161     -0.2867
     77  CB        19.8290   45.8700   17.9200 C.3   161  VAL161      0.0252
     78  CG1       19.6250   47.3790   17.6940 C.3   161  VAL161      0.0019
     79  CG2       19.3550   45.4290   19.3000 C.3   161  VAL161      0.0019
     80  N         20.9030   47.5490   12.9490 N.3   166  LEU166     -0.1245
     81  CA        21.4680   48.5060   13.9000 C.3   166  LEU166      0.1561
     82  C         20.5160   49.6950   14.0730 C.2   166  LEU166      0.2260
     83  O         20.9150   50.7760   14.5140 O.2   166  LEU166     -0.2867
     84  CB        22.8570   48.9940   13.4650 C.3   166  LEU166      0.0270
     85  CG        24.0740   48.0910   13.7460 C.3   166  LEU166      0.0019
     86  CD1       25.3510   48.8310   13.3650 C.3   166  LEU166      0.0001
     87  CD2       24.1310   47.6760   15.2250 C.3   166  LEU166      0.0001
     88  N         17.5620   51.4970   15.9320 N.3   168  VAL168     -0.1245
     89  CA        16.9730   51.5160   17.2560 C.3   168  VAL168      0.1561
     90  C         15.4870   51.8760   17.1430 C.2   168  VAL168      0.2260
     91  O         15.1340   52.9880   16.7530 O.2   168  VAL168     -0.2867
     92  CB        17.7090   52.5260   18.1700 C.3   168  VAL168      0.0252
     93  CG1       16.9840   52.6760   19.5010 C.3   168  VAL168      0.0019
     94  CG2       19.1330   52.0580   18.4010 C.3   168  VAL168      0.0019
     95  N         13.2700   48.6580   21.7170 N.3   172  HIS172     -0.1226
     96  CA        14.6400   48.5920   22.2260 C.3   172  HIS172      0.1752
     97  C         14.8080   49.4420   23.4850 C.2   172  HIS172      0.2595
     98  O         15.7720   49.2790   24.2280 O.2   172  HIS172     -0.2718
     99  CB        15.6300   49.0570   21.1420 C.3   172  HIS172      0.0759
    100  CG        17.0760   48.9500   21.5410 C.ar  172  HIS172      0.0818
    101  ND1       17.7260   47.7430   21.6850 N.ar  172  HIS172     -0.2268
    102  CD2       17.9880   49.9070   21.8430 C.ar  172  HIS172      0.1154
    103  CE1       18.9740   47.9570   22.0650 C.ar  172  HIS172      0.1986
    104  NE2       19.1570   49.2600   22.1680 N.ar  172  HIS172     -0.2212
    105  N         13.8710   50.3480   23.7170 N.am  173  LEU173     -0.1980
    106  CA        13.9280   51.2370   24.8670 C.3   173  LEU173      0.1596
    107  C         12.9900   50.7940   25.9930 C.2   173  LEU173      0.2287
    108  O         12.8620   51.4840   27.0050 O.2   173  LEU173     -0.2864
    109  CB        13.5720   52.6610   24.4210 C.3   173  LEU173      0.0297
    110  CG        14.6430   53.5710   23.8050 C.3   173  LEU173      0.0022
    111  CD1       15.6630   52.8030   23.0060 C.3   173  LEU173      0.0001
    112  CD2       13.9720   54.6090   22.9360 C.3   173  LEU173      0.0001
@<TRIPOS>BOND
     1    80    81    1
     2    86    85    1
     3    84    85    1
     4    84    81    1
     5    85    87    1
     6    81    82    1
     7    82    83    2
     8    34    33    2
     9    33    32    1
    10    88    89    1
    11    73    74    1
    12    91    90    2
    13    74    75    1
    14    74    77    1
    15    76    75    2
    16    90    89    1
    17    32    35    1
    18    32    31    1
    19    35    36    1
    20    26    25    2
    21    69    68    2
    22    89    92    1
    23    30    28    1
    24    25    24    1
    25    78    77    1
    26    77    79    1
    27    28    27    1
    28    28    29    1
    29    92    94    1
    30    92    93    1
    31    27    24    1
    32    68    67    1
    33    36    38   am
    34    36    37    2
    35    24    23    1
    36    72    70    1
    37    71    70    1
    38    67    70    1
    39    67    66    1
    40    99   100    1
    41    99    96    1
    42   100   101   ar
    43   100   102   ar
    44     6     5    1
    45   101   103   ar
    46    95    96    1
    47   102   104   ar
    48    65    63   am
    49   103   104   ar
    50    64    63    2
    51    56    55    1
    52    63    62    1
    53    96    97    1
    54     5     2    1
    55    62    61    1
    56    13    11    1
    57    61    58    1
    58    58    57    1
    59    58    59    1
    60   112   110    1
    61   111   110    1
    62    57    53   am
    63    54    53    2
    64    53    52    1
    65    55    52    1
    66    97   105   am
    67    97    98    2
    68    52    51    1
    69   105   106    1
    70     2     3    1
    71     2     1    1
    72   110   109    1
    73    60    59    2
    74    11    12    1
    75    11     8    1
    76     3     7   am
    77     3     4    2
    78   109   106    1
    79     7     8    1
    80   106   107    1
    81    51    41   am
    82     8     9    1
    83    50    49    1
    84    49    47   ar
    85    49    48   ar
    86    47    45   ar
    87   107   108    2
    88    41    42    2
    89    41    40    1
    90     9    10    2
    91     9    14   am
    92    48    46   ar
    93    45    44   ar
    94    14    15    1
    95    46    44   ar
    96    44    43    1
    97    40    43    1
    98    40    39    1
    99    19    20    1
   100    19    18    1
   101    15    18    1
   102    15    16    1
   103    20    22   ar
   104    20    21   ar
   105    17    16    2
