@<TRIPOS>MOLECULE
tmp/1oxoB01.pdb
 150 143 0 0 0
SMALL
GASTEIGER

@<TRIPOS>ATOM
      1  N          2.2150   20.4390   39.0510 N.3    36  GLY36      -0.1225
      2  CA         3.3620   19.5360   39.0220 C.3    36  GLY36       0.1811
      3  C          4.5950   20.1060   38.3380 C.2    36  GLY36       0.2280
      4  O          5.5970   19.3910   38.1260 O.2    36  GLY36      -0.2866
      5  N         13.0660   10.8880   29.7570 N.3   104  SER104     -0.1202
      6  CA        13.0250   11.7100   30.9830 C.3   104  SER104      0.2020
      7  C         13.2010   10.7350   32.1600 C.2   104  SER104      0.2619
      8  O         13.7360    9.6130   32.0220 O.2   104  SER104     -0.2717
      9  CB        11.7450   12.5070   31.0910 C.3   104  SER104      0.2103
     10  OG        11.9730   13.7560   31.7120 O.3   104  SER104     -0.2182
     11  N         12.7040   11.1720   33.2950 N.am  105  GLY105     -0.1942
     12  CA        12.7580   10.4720   34.5640 C.3   105  GLY105      0.2014
     13  C         11.9270    9.1970   34.6010 C.2   105  GLY105      0.2639
     14  O         12.4780    8.1590   35.0200 O.2   105  GLY105     -0.2714
     15  N         10.6660    9.2830   34.2000 N.am  106  THR106     -0.1950
     16  CA         9.8180    8.0920   34.2270 C.3   106  THR106      0.1897
     17  C         10.3950    6.9560   33.3840 C.2   106  THR106      0.2313
     18  O         10.4830    5.8220   33.8920 O.2   106  THR106     -0.2863
     19  CB         8.3000    8.3000   33.8840 C.3   106  THR106      0.1794
     20  OG1        7.8050    9.3800   34.7270 O.3   106  THR106     -0.2208
     21  CG2        7.5160    6.9830   33.9670 C.3   106  THR106      0.0378
     22  N         13.5940    5.2790   34.8580 N.3   109  LEU109     -0.1245
     23  CA        13.2350    4.4070   35.9850 C.3   109  LEU109      0.1561
     24  C         12.7070    3.0620   35.4640 C.2   109  LEU109      0.2260
     25  O         13.0000    2.0080   36.0600 O.2   109  LEU109     -0.2867
     26  CB        12.2040    5.1250   36.8770 C.3   109  LEU109      0.0270
     27  CG        12.7200    6.1450   37.8810 C.3   109  LEU109      0.0019
     28  CD1       11.6390    7.1950   38.1200 C.3   109  LEU109      0.0001
     29  CD2       13.0880    5.4790   39.1980 C.3   109  LEU109      0.0001
     30  N          6.4900    8.7680   45.5160 N.3   133  TRP133     -0.1241
     31  CA         5.7480    9.2940   44.3440 C.3   133  TRP133      0.1605
     32  C          4.8660    8.1370   43.8740 C.2   133  TRP133      0.2264
     33  O          5.3320    6.9850   43.7260 O.2   133  TRP133     -0.2867
     34  CB         6.7690    9.8620   43.3890 C.3   133  TRP133      0.0550
     35  CG         6.3060   10.2490   42.0390 C.ar  133  TRP133      0.0003
     36  CD1        5.3000   11.1170   41.7100 C.ar  133  TRP133      0.0946
     37  CD2        6.8540    9.7820   40.7880 C.ar  133  TRP133      0.0152
     38  NE1        5.1960   11.2200   40.3400 N.ar  133  TRP133     -0.2442
     39  CE2        6.1360   10.4240   39.7520 C.ar  133  TRP133      0.0810
     40  CE3        7.8740    8.8960   40.4610 C.ar  133  TRP133      0.0012
     41  CZ2        6.4110   10.1920   38.4150 C.ar  133  TRP133      0.0191
     42  CZ3        8.1530    8.6750   39.1300 C.ar  133  TRP133      0.0001
     43  CH2        7.4360    9.3000   38.1210 C.ar  133  TRP133      0.0015
     44  N          5.8930    5.5180   41.3800 N.3   136  HIS136     -0.1297
     45  CA         6.8870    4.5460   41.7910 C.3   136  HIS136      0.1306
     46  C          6.3170    3.1390   41.8530 C.3   136  HIS136      0.2013
     47  O          7.1240    2.2540   41.5280 O.3   136  HIS136     -0.2188
     48  CB         7.7780    4.7560   43.0220 C.3   136  HIS136      0.0691
     49  CG         8.8600    5.7730   42.7900 C.ar  136  HIS136      0.0814
     50  ND1        9.2710    6.6750   43.7430 N.ar  136  HIS136     -0.2268
     51  CD2        9.5960    6.0240   41.6730 C.ar  136  HIS136      0.1154
     52  CE1       10.2200    7.4420   43.2260 C.ar  136  HIS136      0.1986
     53  NE2       10.4370    7.0630   41.9900 N.ar  136  HIS136     -0.2212
     54  N         15.5580    8.6160   47.1920 N.3   181  HIS181     -0.1241
     55  CA        15.4050    9.9100   46.4890 C.3   181  HIS181      0.1621
     56  C         16.6690   10.7120   46.8860 C.2   181  HIS181      0.2264
     57  O         16.9150   10.9560   48.0800 O.2   181  HIS181     -0.2867
     58  CB        14.2100   10.7430   46.9980 C.3   181  HIS181      0.0745
     59  CG        12.8630   10.1470   46.7550 C.ar  181  HIS181      0.0817
     60  ND1       11.8210   10.8450   46.1820 N.ar  181  HIS181     -0.2268
     61  CD2       12.3990    8.9040   47.0360 C.ar  181  HIS181      0.1154
     62  CE1       10.7700   10.0570   46.1080 C.ar  181  HIS181      0.1986
     63  NE2       11.0870    8.8710   46.6130 N.ar  181  HIS181     -0.2212
     64  N          9.7410   13.5100   47.1950 N.3   186  ASN186     -0.1240
     65  CA         8.3960   13.7460   46.6330 C.3   186  ASN186      0.1653
     66  C          7.5620   12.5470   47.1480 C.2   186  ASN186      0.2266
     67  O          8.0260   11.4220   46.9250 O.2   186  ASN186     -0.2867
     68  CB         8.3550   13.8490   45.1100 C.3   186  ASN186      0.1155
     69  CG         6.9870   13.8290   44.4710 C.2   186  ASN186      0.2627
     70  OD1        5.9390   13.7680   45.1410 O.2   186  ASN186     -0.2716
     71  ND2        6.8940   13.8490   43.1360 N.am  186  ASN186     -0.0877
     72  N         16.9470    7.8240   42.7660 N.3   214  ASP214     -0.1239
     73  CA        16.0030    8.5480   41.9030 C.3   214  ASP214      0.1674
     74  C         16.3560   10.0460   42.0490 C.2   214  ASP214      0.2266
     75  O         15.9640   10.6400   43.0720 O.2   214  ASP214     -0.2867
     76  CB        14.5260    8.3150   42.2690 C.3   214  ASP214      0.1410
     77  CG        13.6920    9.0490   41.2090 C.2   214  ASP214      0.3668
     78  OD1       14.2770    9.7810   40.3890 O.co2 214  ASP214     -0.2456
     79  OD2       12.4600    8.8970   41.1740 O.co2 214  ASP214     -0.2456
     80  N         15.5290   13.3230   40.4920 N.3   216  ALA216     -0.1231
     81  CA        14.7350   14.2040   39.6170 C.3   216  ALA216      0.1694
     82  C         14.8870   15.7050   39.8380 C.2   216  ALA216      0.2592
     83  O         14.3550   16.4850   39.0200 O.2   216  ALA216     -0.2718
     84  CB        13.2570   13.8170   39.6890 C.3   216  ALA216      0.0304
     85  N         15.5390   16.1420   40.8960 N.am  217  TYR217     -0.1976
     86  CA        15.7010   17.5410   41.2860 C.3   217  TYR217      0.1639
     87  C         17.0950   18.0820   41.5240 C.2   217  TYR217      0.2290
     88  O         17.2600   19.0250   42.3420 O.2   217  TYR217     -0.2864
     89  CB        14.7670   17.8040   42.5320 C.3   217  TYR217      0.0560
     90  CG        13.3560   17.2870   42.2770 C.ar  217  TYR217     -0.0198
     91  CD1       12.4980   18.0630   41.4860 C.ar  217  TYR217     -0.0009
     92  CD2       12.8790   16.0710   42.7720 C.ar  217  TYR217     -0.0009
     93  CE1       11.2070   17.6200   41.1680 C.ar  217  TYR217      0.0417
     94  CE2       11.5900   15.6350   42.4860 C.ar  217  TYR217      0.0417
     95  CZ        10.7610   16.4010   41.6630 C.ar  217  TYR217      0.1957
     96  OH         9.4870   16.0080   41.3740 O.3   217  TYR217     -0.2866
     97  N         16.5010   13.0970   35.5990 N.3   247  SER247     -0.1217
     98  CA        15.4620   13.8720   34.9290 C.3   247  SER247      0.1889
     99  C         15.9410   15.3170   34.7600 C.2   247  SER247      0.2288
    100  O         16.5930   15.8370   35.6780 O.2   247  SER247     -0.2866
    101  CB        14.1530   13.7780   35.6950 C.3   247  SER247      0.2089
    102  OG        13.2500   14.7370   35.1440 O.3   247  SER247     -0.2183
    103  N         13.6510   17.5160   33.5930 N.3   249  ALA249     -0.1231
    104  CA        12.3080   18.0990   33.5540 C.3   249  ALA249      0.1694
    105  C         12.2490   19.4430   34.2950 C.2   249  ALA249      0.2591
    106  O         11.8880   20.4950   33.7460 O.2   249  ALA249     -0.2718
    107  CB        11.3050   17.1340   34.1900 C.3   249  ALA249      0.0304
    108  N         12.5920   19.3920   35.5720 N.am  250  LYS250     -0.1980
    109  CA        12.5590   20.5190   36.4750 C.3   250  LYS250      0.1596
    110  C         13.7590   21.4410   36.3720 C.2   250  LYS250      0.2287
    111  O         13.5760   22.6760   36.2380 O.2   250  LYS250     -0.2864
    112  CB        12.3760   20.0890   37.9330 C.3   250  LYS250      0.0298
    113  CG        10.9380   20.0030   38.4420 C.3   250  LYS250      0.0038
    114  CD        10.2730   18.7190   37.9470 C.3   250  LYS250      0.0206
    115  CE         8.8040   18.6460   38.3030 C.3   250  LYS250      0.1093
    116  NZ         8.2610   17.3170   37.8730 N.3   250  LYS250     -0.1314
    117  N         10.4150   19.6280   30.6360 N.3   255  TYR255     -0.1241
    118  CA         9.2030   18.8770   30.8450 C.3   255  TYR255      0.1605
    119  C          8.8070   17.9990   29.6560 C.2   255  TYR255      0.2264
    120  O          9.0490   16.7800   29.6670 O.2   255  TYR255     -0.2867
    121  CB         8.0250   19.8410   31.1680 C.3   255  TYR255      0.0534
    122  CG         8.2720   20.5650   32.4730 C.ar  255  TYR255     -0.0201
    123  CD1        8.0320   19.9500   33.7180 C.ar  255  TYR255     -0.0009
    124  CD2        8.8120   21.8520   32.4380 C.ar  255  TYR255     -0.0009
    125  CE1        8.3090   20.6300   34.9060 C.ar  255  TYR255      0.0417
    126  CE2        9.0890   22.5420   33.6230 C.ar  255  TYR255      0.0417
    127  CZ         8.8320   21.9260   34.8440 C.ar  255  TYR255      0.1957
    128  OH         9.1290   22.6410   35.9560 O.3   255  TYR255     -0.2866
    129  N         11.2810   15.5670   27.1900 N.3   258  ARG258     -0.1245
    130  CA        11.6200   14.2810   27.7690 C.3   258  ARG258      0.1563
    131  C         13.0770   13.8530   27.7490 C.2   258  ARG258      0.2260
    132  O         13.4310   12.8420   27.1010 O.2   258  ARG258     -0.2867
    133  CB        10.7260   13.1190   27.3090 C.3   258  ARG258      0.0307
    134  CG         9.2550   13.4090   27.1010 C.3   258  ARG258      0.0489
    135  CD         8.5300   13.8040   28.3330 C.3   258  ARG258      0.2205
    136  NE         8.4020   12.7560   29.3350 N.pl3 258  ARG258     -0.0865
    137  CZ         8.5960   12.8810   30.6460 C.cat 258  ARG258      0.5346
    138  NH1        9.1160   14.0140   31.1440 N.pl3 258  ARG258      0.1354
    139  NH2        8.3420   11.8830   31.4900 N.pl3 258  ARG258      0.1354
    140  N          7.6480   20.2920   46.6650 N.3   352  PHE352     -0.1241
    141  CA         6.5570   19.7280   47.4600 C.3   352  PHE352      0.1605
    142  C          6.6680   19.8830   48.9590 C.2   352  PHE352      0.2264
    143  O          7.7350   19.7150   49.5630 O.2   352  PHE352     -0.2867
    144  CB         6.2100   18.2940   47.0340 C.3   352  PHE352      0.0534
    145  CG         5.8970   18.1840   45.5640 C.ar  352  PHE352     -0.0203
    146  CD1        4.6830   18.6540   45.0580 C.ar  352  PHE352     -0.0042
    147  CD2        6.8420   17.6370   44.6950 C.ar  352  PHE352     -0.0042
    148  CE1        4.4050   18.5550   43.6930 C.ar  352  PHE352     -0.0003
    149  CE2        6.5880   17.5270   43.3380 C.ar  352  PHE352     -0.0003
    150  CZ         5.3690   17.9920   42.8350 C.ar  352  PHE352     -0.0000
@<TRIPOS>BOND
     1   134   133    1
     2   134   135    1
     3   132   131    2
     4   129   130    1
     5   133   130    1
     6   131   130    1
     7   135   136    1
     8   136   137    2
     9   119   120    2
    10   119   118    1
    11     5     6    1
    12   117   118    1
    13   137   138    1
    14   137   139    1
    15   118   121    1
    16     6     9    1
    17     6     7    1
    18     9    10    1
    19   121   122    1
    20     8     7    2
    21     7    11   am
    22   124   122   ar
    23   124   126   ar
    24   122   123   ar
    25    11    12    1
    26    17    18    2
    27    17    16    1
    28   104   103    1
    29   104   107    1
    30   104   105    1
    31   126   127   ar
    32   123   125   ar
    33   106   105    2
    34    19    21    1
    35    19    16    1
    36    19    20    1
    37    15    16    1
    38    15    13   am
    39   105   108   am
    40    12    13    1
    41    13    14    2
    42    99    98    1
    43    99   100    2
    44   127   125   ar
    45   127   128    1
    46    22    23    1
    47    98    97    1
    48    98   101    1
    49   102   101    1
    50    24    23    1
    51    24    25    2
    52   108   109    1
    53    23    26    1
    54   111   110    2
    55   110   109    1
    56   109   112    1
    57    26    27    1
    58   116   115    1
    59    27    28    1
    60    27    29    1
    61   112   113    1
    62   114   115    1
    63   114   113    1
    64    43    41   ar
    65    43    42   ar
    66     4     3    2
    67     3     2    1
    68    41    39   ar
    69    83    82    2
    70     2     1    1
    71    42    40   ar
    72    81    84    1
    73    81    82    1
    74    81    80    1
    75    39    38   ar
    76    39    37   ar
    77    82    85   am
    78    38    36   ar
    79    78    77   ar
    80    40    37   ar
    81    37    35   ar
    82    85    86    1
    83    93    91   ar
    84    93    95   ar
    85    79    77   ar
    86    77    76    1
    87    86    87    1
    88    86    89    1
    89    96    95    1
    90    44    45    1
    91    91    90   ar
    92    87    88    2
    93    47    46    1
    94    95    94   ar
    95    51    53   ar
    96    51    49   ar
    97    36    35   ar
    98    45    46    1
    99    45    48    1
   100    73    74    1
   101    73    76    1
   102    73    72    1
   103    53    52   ar
   104    35    34    1
   105    74    75    2
   106    90    89    1
   107    90    92   ar
   108    94    92   ar
   109    49    48    1
   110    49    50   ar
   111   150   149   ar
   112   150   148   ar
   113    71    69   am
   114    52    50   ar
   115   149   147   ar
   116    34    31    1
   117   148   146   ar
   118    33    32    2
   119    32    31    1
   120    31    30    1
   121    69    68    1
   122    69    70    2
   123   147   145   ar
   124   146   145   ar
   125    68    65    1
   126   145   144    1
   127    62    60   ar
   128    62    63   ar
   129    60    59   ar
   130    55    56    1
   131    55    58    1
   132    55    54    1
   133    63    61   ar
   134    65    66    1
   135    65    64    1
   136   140   141    1
   137    59    58    1
   138    59    61   ar
   139    56    57    2
   140    67    66    2
   141   144   141    1
   142   141   142    1
   143   142   143    2
