@<TRIPOS>MOLECULE
tmp/1oxrA00.pdb
 147 146 0 0 0
SMALL
GASTEIGER

@<TRIPOS>ATOM
      1  N          8.3900   18.9450    9.1560 N.3     2  LEU2       -0.1245
      2  CA         8.0210   17.9090    8.1890 C.3     2  LEU2        0.1561
      3  C          6.5520   17.5160    8.2010 C.2     2  LEU2        0.2260
      4  O          6.0110   17.1950    7.1650 O.2     2  LEU2       -0.2867
      5  CB         8.9180   16.6740    8.3120 C.3     2  LEU2        0.0270
      6  CG        10.3800   16.9310    7.9220 C.3     2  LEU2        0.0019
      7  CD1       11.1400   15.6130    7.8090 C.3     2  LEU2        0.0001
      8  CD2       10.4920   17.7040    6.5900 C.3     2  LEU2        0.0001
      9  N          4.9490   20.1730    6.1170 N.3     5  PHE5       -0.1241
     10  CA         5.3100   20.0110    4.7190 C.3     5  PHE5        0.1605
     11  C          4.4390   18.9040    4.1110 C.2     5  PHE5        0.2264
     12  O          3.9090   19.0560    2.9990 O.2     5  PHE5       -0.2867
     13  CB         6.7940   19.6430    4.6130 C.3     5  PHE5        0.0534
     14  CG         7.3130   19.5910    3.2080 C.ar    5  PHE5       -0.0203
     15  CD1        6.9060   20.5150    2.2670 C.ar    5  PHE5       -0.0042
     16  CD2        8.2310   18.6070    2.8370 C.ar    5  PHE5       -0.0042
     17  CE1        7.3940   20.4820    0.9970 C.ar    5  PHE5       -0.0003
     18  CE2        8.7100   18.5440    1.5590 C.ar    5  PHE5       -0.0003
     19  CZ         8.2910   19.4790    0.6280 C.ar    5  PHE5       -0.0000
     20  N          1.7510   19.1300    0.9200 N.3     9  ILE9       -0.1245
     21  CA         1.7500   18.2390   -0.2250 C.3     9  ILE9        0.1561
     22  C          0.3590   17.6620   -0.4270 C.2     9  ILE9        0.2260
     23  O         -0.1300   17.6230   -1.5500 O.2     9  ILE9       -0.2867
     24  CB         2.7850   17.1560   -0.0830 C.3     9  ILE9        0.0252
     25  CG1        4.1710   17.7860   -0.0440 C.3     9  ILE9        0.0019
     26  CG2        2.7030   16.1750   -1.2730 C.3     9  ILE9        0.0019
     27  CD1        5.2400   16.7790    0.3310 C.3     9  ILE9        0.0001
     28  N          1.2260   11.1940   -0.1140 N.3    18  TRP18      -0.1241
     29  CA         2.4000   11.9870    0.1930 C.3    18  TRP18       0.1605
     30  C          3.6620   11.0920    0.0770 C.2    18  TRP18       0.2264
     31  O          4.6820   11.5500   -0.4330 O.2    18  TRP18      -0.2867
     32  CB         2.2670   12.6370    1.5810 C.3    18  TRP18       0.0550
     33  CG         3.3530   12.2220    2.5360 C.ar   18  TRP18       0.0003
     34  CD1        4.6470   12.6610    2.5400 C.ar   18  TRP18       0.0946
     35  CD2        3.2480   11.2930    3.6190 C.ar   18  TRP18       0.0152
     36  NE1        5.3550   12.0530    3.5470 N.ar   18  TRP18      -0.2442
     37  CE2        4.5170   11.2100    4.2280 C.ar   18  TRP18       0.0810
     38  CE3        2.2090   10.5170    4.1380 C.ar   18  TRP18       0.0012
     39  CZ2        4.7710   10.3910    5.3200 C.ar   18  TRP18       0.0191
     40  CZ3        2.4700    9.7030    5.2300 C.ar   18  TRP18       0.0001
     41  CH2        3.7390    9.6490    5.8040 C.ar   18  TRP18       0.0015
     42  N          6.3390   11.0240   -2.7390 N.3    21  PHE21      -0.1227
     43  CA         7.3660   12.0470   -2.8470 C.3    21  PHE21       0.1736
     44  C          8.4530   11.8720   -1.8040 C.2    21  PHE21       0.2595
     45  O          9.4220   12.6330   -1.7850 O.2    21  PHE21      -0.2718
     46  CB         6.7380   13.4350   -2.6920 C.3    21  PHE21       0.0547
     47  CG         5.7200   13.7560   -3.7480 C.ar   21  PHE21      -0.0202
     48  CD1        6.1200   14.1450   -5.0190 C.ar   21  PHE21      -0.0042
     49  CD2        4.3770   13.6580   -3.4750 C.ar   21  PHE21      -0.0042
     50  CE1        5.1950   14.4420   -5.9960 C.ar   21  PHE21      -0.0003
     51  CE2        3.4470   13.9530   -4.4410 C.ar   21  PHE21      -0.0003
     52  CZ         3.8490   14.3440   -5.7080 C.ar   21  PHE21      -0.0000
     53  N          8.3070   10.8760   -0.9450 N.am   22  ALA22      -0.1980
     54  CA         9.2660   10.6850    0.1450 C.3    22  ALA22       0.1597
     55  C         10.5210    9.9040   -0.2500 C.2    22  ALA22       0.2287
     56  O         11.4540    9.8390    0.5310 O.2    22  ALA22      -0.2864
     57  CB         8.6140   10.0070    1.3140 C.3    22  ALA22       0.0319
     58  N         17.1280   13.5630   -4.8650 N.3    27  TYR27      -0.1227
     59  CA        16.8910   14.5970   -3.8500 C.3    27  TYR27       0.1736
     60  C         15.6160   14.4940   -3.0070 C.2    27  TYR27       0.2596
     61  O         15.5870   14.9970   -1.8740 O.2    27  TYR27      -0.2718
     62  CB        16.9580   15.9770   -4.5020 C.3    27  TYR27       0.0548
     63  CG        18.3630   16.3080   -4.9150 C.ar   27  TYR27      -0.0200
     64  CD1       19.2270   16.9330   -4.0450 C.ar   27  TYR27      -0.0009
     65  CD2       18.8360   15.9510   -6.1710 C.ar   27  TYR27      -0.0009
     66  CE1       20.5300   17.2250   -4.4180 C.ar   27  TYR27       0.0417
     67  CE2       20.1300   16.2320   -6.5520 C.ar   27  TYR27       0.0417
     68  CZ        20.9780   16.8590   -5.6670 C.ar   27  TYR27       0.1957
     69  OH        22.2670   17.1330   -6.0410 O.3    27  TYR27      -0.2866
     70  N         14.5660   13.8760   -3.5270 N.am   28  CYS28      -0.1956
     71  CA        13.3270   13.7860   -2.7700 C.3    28  CYS28       0.1843
     72  C         13.3990   12.7510   -1.6600 C.2    28  CYS28       0.2626
     73  O         13.4000   11.5410   -1.9110 O.2    28  CYS28      -0.2714
     74  CB        12.1460   13.4790   -3.6760 C.3    28  CYS28       0.0997
     75  SG        11.9580   14.5950   -5.0380 S.3    28  CYS28      -0.0797
     76  N         13.4420   13.2270   -0.4280 N.am   29  GLY29      -0.1940
     77  CA        13.5650   12.3380    0.7020 C.3    29  GLY29       0.2014
     78  C         14.9680   12.4030    1.2560 C.2    29  GLY29       0.2638
     79  O         15.6180   13.4420    1.2170 O.2    29  GLY29      -0.2714
     80  N         15.4340   11.2740    1.7810 N.am   30  LYS30      -0.1977
     81  CA        16.7650   11.1780    2.3720 C.3    30  LYS30       0.1596
     82  C         17.8860   11.7270    1.5010 C.2    30  LYS30       0.2287
     83  O         18.6850   12.5140    1.9680 O.2    30  LYS30      -0.2864
     84  CB        17.1310    9.7100    2.6630 C.3    30  LYS30       0.0298
     85  CG        16.4090    9.0580    3.8290 C.3    30  LYS30       0.0038
     86  CD        17.3660    8.6710    4.9570 C.3    30  LYS30       0.0206
     87  CE        16.8600    9.1700    6.2880 C.3    30  LYS30       0.1093
     88  NZ        16.3160   10.5650    6.1960 N.3    30  LYS30      -0.1314
     89  N         12.9590   19.0360   -5.6250 N.3    44  CYS44      -0.1235
     90  CA        13.5220   18.6020   -4.3670 C.3    44  CYS44       0.1677
     91  C         14.9500   19.1260   -4.1610 C.2    44  CYS44       0.2270
     92  O         15.3270   19.4350   -3.0420 O.2    44  CYS44      -0.2867
     93  CB        13.4560   17.0760   -4.2460 C.3    44  CYS44       0.0956
     94  SG        11.7440   16.4640   -4.2500 S.3    44  CYS44      -0.0801
     95  N         14.5630   22.5950   -2.9580 N.3    47  HIS47      -0.1226
     96  CA        14.0380   22.4860   -1.5830 C.3    47  HIS47       0.1752
     97  C         15.1520   22.1620   -0.5760 C.2    47  HIS47       0.2596
     98  O         15.2760   22.7890    0.4800 O.2    47  HIS47      -0.2718
     99  CB        12.9000   21.4640   -1.5330 C.3    47  HIS47       0.0759
    100  CG        12.2210   21.3900   -0.2040 C.ar   47  HIS47       0.0818
    101  ND1       12.4110   20.3440    0.6700 N.ar   47  HIS47      -0.2268
    102  CD2       11.3680   22.2440    0.4100 C.ar   47  HIS47       0.1154
    103  CE1       11.6860   20.5510    1.7590 C.ar   47  HIS47       0.1986
    104  NE2       11.0660   21.7100    1.6380 N.ar   47  HIS47      -0.2212
    105  N         15.9700   21.1720   -0.8950 N.am   48  ASP48      -0.1974
    106  CA        17.0770   20.8140   -0.0470 C.3    48  ASP48       0.1709
    107  C         18.0390   21.9940    0.1210 C.2    48  ASP48       0.2293
    108  O         18.5080   22.2340    1.1850 O.2    48  ASP48      -0.2864
    109  CB        17.8680   19.6610   -0.6740 C.3    48  ASP48       0.1436
    110  CG        17.1960   18.2920   -0.5120 C.2    48  ASP48       0.3671
    111  OD1       16.1650   18.1260    0.1980 O.co2  48  ASP48      -0.2456
    112  OD2       17.6750   17.2940   -1.1010 O.co2  48  ASP48      -0.2456
    113  N         16.5890   24.5540    2.4830 N.3    51  TYR51      -0.1241
    114  CA        16.7810   24.1610    3.8630 C.3    51  TYR51       0.1605
    115  C         18.2030   24.4310    4.3310 C.2    51  TYR51       0.2264
    116  O         18.4150   24.8550    5.4720 O.2    51  TYR51      -0.2867
    117  CB        16.4700   22.6880    4.0590 C.3    51  TYR51       0.0534
    118  CG        14.9990   22.3740    4.3640 C.ar   51  TYR51      -0.0201
    119  CD1       13.9870   23.2720    4.0920 C.ar   51  TYR51      -0.0009
    120  CD2       14.6510   21.1630    4.9030 C.ar   51  TYR51      -0.0009
    121  CE1       12.6450   22.9610    4.3570 C.ar   51  TYR51       0.0417
    122  CE2       13.3270   20.8400    5.1770 C.ar   51  TYR51       0.0417
    123  CZ        12.3360   21.7310    4.9060 C.ar   51  TYR51       0.1957
    124  OH        11.0460   21.3600    5.1880 O.3    51  TYR51      -0.2866
    125  N         13.6340   20.9290    9.6260 N.3    63  TYR63      -0.1241
    126  CA        12.8030   19.7400    9.7910 C.3    63  TYR63       0.1605
    127  C         11.8720   19.8430   11.0010 C.2    63  TYR63       0.2264
    128  O         10.8250   19.1880   11.0400 O.2    63  TYR63      -0.2867
    129  CB        13.6580   18.4860    9.9950 C.3    63  TYR63       0.0534
    130  CG        14.2230   17.8070    8.7590 C.ar   63  TYR63      -0.0201
    131  CD1       14.5230   16.4480    8.7880 C.ar   63  TYR63      -0.0009
    132  CD2       14.5210   18.5060    7.6190 C.ar   63  TYR63      -0.0009
    133  CE1       15.0670   15.8100    7.6930 C.ar   63  TYR63       0.0417
    134  CE2       15.0600   17.8780    6.5150 C.ar   63  TYR63       0.0417
    135  CZ        15.3250   16.5360    6.5550 C.ar   63  TYR63       0.1957
    136  OH        15.8460   15.9090    5.4550 O.3    63  TYR63      -0.2866
    137  N          5.9210   20.6130   -6.9680 N.3   100  PHE100     -0.1241
    138  CA         5.5110   19.2140   -7.0740 C.3   100  PHE100      0.1605
    139  C          4.2120   19.0800   -7.8850 C.2   100  PHE100      0.2264
    140  O          4.0330   18.1310   -8.6500 O.2   100  PHE100     -0.2867
    141  CB         5.2430   18.6030   -5.6950 C.3   100  PHE100      0.0534
    142  CG         6.4650   18.3560   -4.8540 C.ar  100  PHE100     -0.0203
    143  CD1        7.7220   18.7390   -5.2710 C.ar  100  PHE100     -0.0042
    144  CD2        6.3360   17.7400   -3.6300 C.ar  100  PHE100     -0.0042
    145  CE1        8.8110   18.5220   -4.4700 C.ar  100  PHE100     -0.0003
    146  CE2        7.4320   17.5070   -2.8330 C.ar  100  PHE100     -0.0003
    147  CZ         8.6670   17.8930   -3.2560 C.ar  100  PHE100     -0.0000
@<TRIPOS>BOND
     1   140   139    2
     2   139   138    1
     3   138   137    1
     4   138   141    1
     5    67    65   ar
     6    67    68   ar
     7    65    63   ar
     8    69    68    1
     9    50    52   ar
    10    50    48   ar
    11    52    51   ar
    12   141   142    1
    13    68    66   ar
    14    89    90    1
    15   143   142   ar
    16   143   145   ar
    17    75    94    1
    18    75    74    1
    19    48    47   ar
    20    63    62    1
    21    63    64   ar
    22    58    59    1
    23   142   144   ar
    24    62    59    1
    25   145   147   ar
    26    51    49   ar
    27    66    64   ar
    28    90    93    1
    29    90    91    1
    30    94    93    1
    31    91    92    2
    32    59    60    1
    33    47    49   ar
    34    47    46    1
    35    74    71    1
    36   144   146   ar
    37    70    60   am
    38    70    71    1
    39   147   146   ar
    40    60    61    2
    41    95    96    1
    42    43    42    1
    43    43    46    1
    44    43    44    1
    45    71    72    1
    46    73    72    2
    47    44    45    2
    48    44    53   am
    49    72    76   am
    50    96    99    1
    51    96    97    1
    52    23    22    2
    53    99   100    1
    54    26    24    1
    55   112   110   ar
    56    53    54    1
    57   105    97   am
    58   105   106    1
    59   109   110    1
    60   109   106    1
    61    97    98    2
    62   110   111   ar
    63    31    30    2
    64    76    77    1
    65    22    21    1
    66    55    54    1
    67    55    56    2
    68    21    24    1
    69    21    20    1
    70   100   102   ar
    71   100   101   ar
    72    28    29    1
    73    24    25    1
    74   106   107    1
    75    25    27    1
    76    30    29    1
    77   107   108    2
    78    54    57    1
    79    29    32    1
    80   102   104   ar
    81    19    17   ar
    82    19    18   ar
    83   101   103   ar
    84    77    78    1
    85    17    15   ar
    86    79    78    2
    87    78    80   am
    88    82    83    2
    89    82    81    1
    90    18    16   ar
    91    32    33    1
    92   104   103   ar
    93    80    81    1
    94    15    14   ar
    95    81    84    1
    96   113   114    1
    97    33    34   ar
    98    33    35   ar
    99    34    36   ar
   100    84    85    1
   101    16    14   ar
   102    12    11    2
   103    14    13    1
   104    36    37   ar
   105    35    38   ar
   106    35    37   ar
   107    85    86    1
   108   114   117    1
   109   114   115    1
   110   117   118    1
   111   119   121   ar
   112   119   118   ar
   113    11    10    1
   114    38    40   ar
   115    37    39   ar
   116   115   116    2
   117   121   123   ar
   118   118   120   ar
   119    13    10    1
   120    10     9    1
   121   120   122   ar
   122   123   122   ar
   123   123   124    1
   124    86    87    1
   125    40    41   ar
   126    39    41   ar
   127   136   135    1
   128    88    87    1
   129   134   135   ar
   130   134   132   ar
   131   135   133   ar
   132     8     6    1
   133     4     3    2
   134   132   130   ar
   135   133   131   ar
   136     7     6    1
   137     6     5    1
   138     2     3    1
   139     2     5    1
   140     2     1    1
   141   130   131   ar
   142   130   129    1
   143   125   126    1
   144   126   129    1
   145   126   127    1
   146   127   128    2
