@<TRIPOS>MOLECULE
tmp/1oxuB00.pdb
 83 79 0 0 0
SMALL
GASTEIGER

@<TRIPOS>ATOM
      1  N         25.1410  115.7100   61.6990 N.3    13  PHE13      -0.1227
      2  CA        25.8170  114.5150   61.2120 C.3    13  PHE13       0.1736
      3  C         26.6740  114.9470   60.0240 C.2    13  PHE13       0.2595
      4  O         26.6150  116.1000   59.5930 O.2    13  PHE13      -0.2718
      5  CB        24.8110  113.4290   60.7940 C.3    13  PHE13       0.0547
      6  CG        23.9700  112.9030   61.9350 C.ar   13  PHE13      -0.0202
      7  CD1       22.6500  113.3010   62.0870 C.ar   13  PHE13      -0.0042
      8  CD2       24.5060  112.0160   62.8600 C.ar   13  PHE13      -0.0042
      9  CE1       21.8740  112.8280   63.1430 C.ar   13  PHE13      -0.0003
     10  CE2       23.7390  111.5300   63.9170 C.ar   13  PHE13      -0.0003
     11  CZ        22.4220  111.9390   64.0630 C.ar   13  PHE13      -0.0000
     12  N         27.4700  114.0230   59.5030 N.am   14  LYS14      -0.1980
     13  CA        28.3490  114.3000   58.3770 C.3    14  LYS14       0.1596
     14  C         29.2380  115.5130   58.6300 C.2    14  LYS14       0.2287
     15  O         29.3360  116.4120   57.7950 O.2    14  LYS14      -0.2864
     16  CB        27.5480  114.4470   57.0790 C.3    14  LYS14       0.0298
     17  CG        26.7880  113.1760   56.7080 C.3    14  LYS14       0.0038
     18  CD        26.4680  113.1060   55.2260 C.3    14  LYS14       0.0206
     19  CE        26.1660  111.6740   54.8010 C.3    14  LYS14       0.1093
     20  NZ        24.9430  111.1220   55.4490 N.3    14  LYS14      -0.1314
     21  N         25.0320  118.0400   57.7380 N.3    18  VAL18      -0.1245
     22  CA        23.6120  117.7350   57.8560 C.3    18  VAL18       0.1561
     23  C         23.0890  118.1300   59.2270 C.2    18  VAL18       0.2260
     24  O         23.5770  117.6440   60.2500 O.2    18  VAL18      -0.2867
     25  CB        23.3250  116.2370   57.6160 C.3    18  VAL18       0.0252
     26  CG1       21.9310  115.8750   58.1100 C.3    18  VAL18       0.0019
     27  CG2       23.4860  115.8870   56.1440 C.3    18  VAL18       0.0019
     28  N         20.1790  117.7010   61.5280 N.3    20  ALA20      -0.1245
     29  CA        19.0100  116.8540   61.7750 C.3    20  ALA20       0.1562
     30  C         17.9850  117.5200   62.6830 C.2    20  ALA20       0.2260
     31  O         16.7850  117.2680   62.5700 O.2    20  ALA20      -0.2867
     32  CB        19.4460  115.5220   62.3630 C.3    20  ALA20       0.0290
     33  N          8.9670  111.5370   57.0270 N.3    40  SER40      -0.1202
     34  CA        10.2070  110.7810   57.0900 C.3    40  SER40       0.2020
     35  C         11.4080  111.7130   56.9430 C.2    40  SER40       0.2619
     36  O         11.4300  112.5700   56.0620 O.2    40  SER40      -0.2717
     37  CB        10.2250  109.7170   55.9900 C.3    40  SER40       0.2103
     38  OG        11.4470  109.0040   55.9880 O.3    40  SER40      -0.2182
     39  N         12.3970  111.5540   57.8180 N.am   41  GLY41      -0.1942
     40  CA        13.6100  112.3550   57.7640 C.3    41  GLY41       0.2014
     41  C         13.5410  113.7000   58.4770 C.2    41  GLY41       0.2639
     42  O         14.5180  114.4570   58.5120 O.2    41  GLY41      -0.2714
     43  N         12.3920  114.0060   59.0600 N.am   42  ALA42      -0.1963
     44  CA        12.2240  115.2890   59.7520 C.3    42  ALA42       0.1728
     45  C         13.1090  115.4540   60.9910 C.2    42  ALA42       0.2617
     46  O         13.4670  116.5760   61.3560 O.2    42  ALA42      -0.2715
     47  CB        10.7690  115.5080   60.1170 C.3    42  ALA42       0.0334
     48  N         13.4390  114.3430   61.6440 N.am   43  GLY43      -0.1940
     49  CA        14.2640  114.3720   62.8430 C.3    43  GLY43       0.2014
     50  C         13.6240  113.7460   64.0820 C.2    43  GLY43       0.2639
     51  O         14.1550  113.8570   65.1920 O.2    43  GLY43      -0.2714
     52  N         12.4990  113.0650   63.8960 N.am   44  LYS44      -0.1963
     53  CA        11.7700  112.4480   65.0140 C.3    44  LYS44       0.1728
     54  C         12.6160  111.5090   65.8710 C.2    44  LYS44       0.2617
     55  O         12.7040  111.6720   67.0830 O.2    44  LYS44      -0.2715
     56  CB        10.5250  111.6970   64.5020 C.3    44  LYS44       0.0311
     57  CG         9.5750  112.5610   63.6820 C.3    44  LYS44       0.0038
     58  CD         8.3050  111.8120   63.3010 C.3    44  LYS44       0.0206
     59  CE         8.5850  110.6520   62.3570 C.3    44  LYS44       0.1093
     60  NZ         9.1640  111.1230   61.0650 N.3    44  LYS44      -0.1314
     61  N         13.2300  110.5140   65.2410 N.am   45  THR45      -0.1937
     62  CA        14.0030  109.5150   65.9760 C.3    45  THR45       0.2028
     63  C         15.2700  110.0820   66.6240 C.2    45  THR45       0.2642
     64  O         15.6500  109.6890   67.7230 O.2    45  THR45      -0.2714
     65  CB        14.3360  108.3200   65.0660 C.3    45  THR45       0.1808
     66  OG1       13.1230  107.6330   64.7320 O.3    45  THR45      -0.2208
     67  CG2       15.1390  107.2700   65.8310 C.3    45  THR45       0.0379
     68  N         15.9290  111.0000   65.9350 N.am   46  THR46      -0.1950
     69  CA        17.0890  111.6660   66.5070 C.3    46  THR46       0.1897
     70  C         16.6860  112.3410   67.8250 C.2    46  THR46       0.2313
     71  O         17.3270  112.1560   68.8610 O.2    46  THR46      -0.2863
     72  CB        17.6160  112.7050   65.5080 C.3    46  THR46       0.1794
     73  OG1       18.1020  112.0300   64.3400 O.3    46  THR46      -0.2208
     74  CG2       18.8380  113.4090   66.0640 C.3    46  THR46       0.0378
     75  N          6.8210  105.7610   66.7760 N.3   166  GLU166     -0.1245
     76  CA         6.0060  105.0410   65.7890 C.3   166  GLU166      0.1567
     77  C          5.8110  103.5940   66.2220 C.2   166  GLU166      0.2260
     78  O          6.2140  102.6640   65.5270 O.2   166  GLU166     -0.2867
     79  CB         6.6460  105.1130   64.4010 C.3   166  GLU166      0.0388
     80  CG         7.2470  106.4740   64.0840 C.3   166  GLU166      0.1160
     81  CD         7.2120  106.8130   62.6060 C.2   166  GLU166      0.3649
     82  OE1        6.0990  107.0160   62.0730 O.co2 166  GLU166     -0.2457
     83  OE2        8.2950  106.8900   61.9810 O.co2 166  GLU166     -0.2457
@<TRIPOS>BOND
     1    19    18    1
     2    19    20    1
     3    18    17    1
     4    38    37    1
     5    37    34    1
     6    36    35    2
     7    27    25    1
     8    17    16    1
     9    35    34    1
    10    35    39   am
    11    33    34    1
    12    16    13    1
    13    25    22    1
    14    25    26    1
    15    21    22    1
    16    40    39    1
    17    40    41    1
    18    15    14    2
    19    22    23    1
    20    13    14    1
    21    13    12    1
    22    41    42    2
    23    41    43   am
    24    43    44    1
    25    23    24    2
    26    12     3   am
    27     4     3    2
    28    44    47    1
    29    44    45    1
    30     3     2    1
    31     5     2    1
    32     5     6    1
    33    45    46    2
    34    45    48   am
    35    60    59    1
    36     2     1    1
    37    28    29    1
    38    48    49    1
    39    29    32    1
    40    29    30    1
    41     6     7   ar
    42     6     8   ar
    43    83    81   ar
    44    82    81   ar
    45     7     9   ar
    46    59    58    1
    47    31    30    2
    48    81    80    1
    49    49    50    1
    50     8    10   ar
    51     9    11   ar
    52    58    57    1
    53    57    56    1
    54    52    50   am
    55    52    53    1
    56    10    11   ar
    57    50    51    2
    58    80    79    1
    59    73    72    1
    60    79    76    1
    61    56    53    1
    62    66    65    1
    63    53    54    1
    64    65    67    1
    65    65    62    1
    66    61    54   am
    67    61    62    1
    68    72    74    1
    69    72    69    1
    70    78    77    2
    71    76    77    1
    72    76    75    1
    73    54    55    2
    74    68    69    1
    75    68    63   am
    76    62    63    1
    77    69    70    1
    78    63    64    2
    79    70    71    2
