@<TRIPOS>MOLECULE
tmp/1oxvB00.pdb
 102 97 0 0 0
SMALL
GASTEIGER

@<TRIPOS>ATOM
      1  N         24.4610  115.4910   61.8950 N.3    13  PHE13      -0.1227
      2  CA        25.1270  114.2890   61.4190 C.3    13  PHE13       0.1736
      3  C         26.0200  114.6840   60.2410 C.2    13  PHE13       0.2595
      4  O         26.0110  115.8410   59.7900 O.2    13  PHE13      -0.2718
      5  CB        24.1220  113.2020   60.9910 C.3    13  PHE13       0.0547
      6  CG        23.2730  112.6710   62.1180 C.ar   13  PHE13      -0.0202
      7  CD1       21.9490  113.0660   62.2590 C.ar   13  PHE13      -0.0042
      8  CD2       23.7900  111.7620   63.0290 C.ar   13  PHE13      -0.0042
      9  CE1       21.1600  112.5730   63.3030 C.ar   13  PHE13      -0.0003
     10  CE2       23.0070  111.2610   64.0680 C.ar   13  PHE13      -0.0003
     11  CZ        21.6940  111.6740   64.2090 C.ar   13  PHE13      -0.0000
     12  N         26.8020  113.7280   59.7530 N.am   14  LYS14      -0.1980
     13  CA        27.6900  113.9700   58.6310 C.3    14  LYS14       0.1596
     14  C         28.6230  115.1480   58.9050 C.2    14  LYS14       0.2287
     15  O         28.8000  116.0240   58.0680 O.2    14  LYS14      -0.2864
     16  CB        26.8820  114.2090   57.3570 C.3    14  LYS14       0.0298
     17  CG        26.1630  112.9530   56.8620 C.3    14  LYS14       0.0038
     18  CD        25.9570  112.9620   55.3560 C.3    14  LYS14       0.0206
     19  CE        25.5530  111.5850   54.8330 C.3    14  LYS14       0.1093
     20  NZ        24.2160  111.1370   55.3200 N.3    14  LYS14      -0.1314
     21  N         24.4160  117.7040   57.8860 N.3    18  VAL18      -0.1245
     22  CA        23.0010  117.4080   58.0440 C.3    18  VAL18       0.1561
     23  C         22.5360  117.7930   59.4380 C.2    18  VAL18       0.2260
     24  O         23.0780  117.3190   60.4340 O.2    18  VAL18      -0.2867
     25  CB        22.7200  115.9130   57.8740 C.3    18  VAL18       0.0252
     26  CG1       21.2470  115.6200   58.1260 C.3    18  VAL18       0.0019
     27  CG2       23.1470  115.4370   56.4930 C.3    18  VAL18       0.0019
     28  N         19.6560  117.3240   61.8040 N.3    20  ALA20      -0.1245
     29  CA        18.4620  116.5020   62.0160 C.3    20  ALA20       0.1562
     30  C         17.4570  117.2000   62.9180 C.2    20  ALA20       0.2260
     31  O         16.2550  116.9940   62.7820 O.2    20  ALA20      -0.2867
     32  CB        18.8370  115.1680   62.6010 C.3    20  ALA20       0.0290
     33  N          8.3550  111.8120   57.0290 N.3    40  SER40      -0.1202
     34  CA         9.5470  110.9920   57.1350 C.3    40  SER40       0.2020
     35  C         10.7810  111.8850   57.0190 C.2    40  SER40       0.2619
     36  O         10.8530  112.7530   56.1390 O.2    40  SER40      -0.2717
     37  CB         9.5630  109.9250   56.0450 C.3    40  SER40       0.2103
     38  OG        10.5590  108.9550   56.3130 O.3    40  SER40      -0.2182
     39  N         11.7350  111.6860   57.9250 N.am   41  GLY41      -0.1942
     40  CA        12.9820  112.4270   57.9070 C.3    41  GLY41       0.2014
     41  C         12.9410  113.7490   58.6450 C.2    41  GLY41       0.2639
     42  O         13.9130  114.5020   58.6400 O.2    41  GLY41      -0.2714
     43  N         11.8240  114.0280   59.3040 N.am   42  ALA42      -0.1963
     44  CA        11.6550  115.2950   60.0110 C.3    42  ALA42       0.1728
     45  C         12.5400  115.3890   61.2560 C.2    42  ALA42       0.2617
     46  O         12.8500  116.4920   61.7120 O.2    42  ALA42      -0.2715
     47  CB        10.2070  115.4870   60.3920 C.3    42  ALA42       0.0334
     48  N         12.9270  114.2330   61.7970 N.am   43  GLY43      -0.1940
     49  CA        13.7570  114.1610   62.9870 C.3    43  GLY43       0.2014
     50  C         13.0600  113.6120   64.2340 C.2    43  GLY43       0.2639
     51  O         13.5280  113.8290   65.3500 O.2    43  GLY43      -0.2714
     52  N         11.9830  112.8550   64.0450 N.am   44  LYS44      -0.1963
     53  CA        11.2010  112.3280   65.1600 C.3    44  LYS44       0.1728
     54  C         11.9840  111.3450   66.0060 C.2    44  LYS44       0.2617
     55  O         12.1090  111.5110   67.2170 O.2    44  LYS44      -0.2715
     56  CB         9.9140  111.6720   64.6330 C.3    44  LYS44       0.0311
     57  CG         9.0850  112.6150   63.8120 C.3    44  LYS44       0.0038
     58  CD         7.7840  111.9770   63.3450 C.3    44  LYS44       0.0206
     59  CE         8.0330  110.8280   62.3700 C.3    44  LYS44       0.1093
     60  NZ         8.5240  111.3080   61.0440 N.3    44  LYS44      -0.1314
     61  N         12.5340  110.3210   65.3730 N.am   45  THR45      -0.1937
     62  CA        13.2870  109.3150   66.1050 C.3    45  THR45       0.2028
     63  C         14.5630  109.9110   66.7310 C.2    45  THR45       0.2642
     64  O         14.9810  109.5040   67.8130 O.2    45  THR45      -0.2714
     65  CB        13.5970  108.1180   65.1810 C.3    45  THR45       0.1808
     66  OG1       12.3820  107.4320   64.8570 O.3    45  THR45      -0.2208
     67  CG2       14.4300  107.0700   65.8880 C.3    45  THR45       0.0379
     68  N         15.1870  110.8650   66.0520 N.am   46  THR46      -0.1950
     69  CA        16.3610  111.5210   66.6150 C.3    46  THR46       0.1897
     70  C         15.9870  112.2130   67.9390 C.2    46  THR46       0.2313
     71  O         16.6830  112.0860   68.9420 O.2    46  THR46      -0.2863
     72  CB        16.9460  112.5110   65.6130 C.3    46  THR46       0.1794
     73  OG1       17.3360  111.8100   64.4240 O.3    46  THR46      -0.2208
     74  CG2       18.2340  113.1060   66.1350 C.3    46  THR46       0.0378
     75  N          9.5860  101.2670   67.3190 N.3    89  GLN89      -0.1245
     76  CA         9.1090  100.4180   66.2070 C.3    89  GLN89       0.1566
     77  C          9.9360   99.1490   66.0440 C.2    89  GLN89       0.2260
     78  O          9.4100   98.1000   65.6740 O.2    89  GLN89      -0.2867
     79  CB         9.0670  101.1790   64.8790 C.3    89  GLN89       0.0367
     80  CG         8.7630  102.6800   65.0120 C.3    89  GLN89       0.0905
     81  CD         9.0520  103.4540   63.7410 C.2    89  GLN89       0.2608
     82  OE1        9.3680  104.6420   63.7960 O.2    89  GLN89      -0.2717
     83  NE2        8.9630  102.7810   62.5970 N.am   89  GLN89      -0.0878
     84  N          6.1590  105.4440   66.9290 N.3   166  GLU166     -0.1245
     85  CA         5.3480  104.7310   65.9480 C.3   166  GLU166      0.1567
     86  C          5.0350  103.3300   66.4520 C.2   166  GLU166      0.2260
     87  O          5.3760  102.3510   65.8070 O.2   166  GLU166     -0.2867
     88  CB         6.0750  104.6490   64.5900 C.3   166  GLU166      0.0388
     89  CG         5.9660  105.9140   63.7520 C.3   166  GLU166      0.1160
     90  CD         6.7620  105.8500   62.4570 C.2   166  GLU166      0.3649
     91  OE1        7.5170  106.8100   62.1600 O.co2 166  GLU166     -0.2457
     92  OE2        6.6360  104.8410   61.7290 O.co2 166  GLU166     -0.2457
     93  N          4.0660  109.6090   62.1330 N.3   199  HIS199     -0.1241
     94  CA         3.8270  110.2830   60.8680 C.3   199  HIS199      0.1621
     95  C          2.3350  110.2000   60.5870 C.2   199  HIS199      0.2264
     96  O          1.8620  110.6760   59.5610 O.2   199  HIS199     -0.2867
     97  CB         4.6170  109.6330   59.7320 C.3   199  HIS199      0.0745
     98  CG         4.3440  108.1700   59.5650 C.ar  199  HIS199      0.0817
     99  ND1        5.2800  107.1980   59.8500 N.ar  199  HIS199     -0.2268
    100  CD2        3.2370  107.5110   59.1430 C.ar  199  HIS199      0.1154
    101  CE1        4.7650  106.0060   59.6060 C.ar  199  HIS199      0.1986
    102  NE2        3.5270  106.1680   59.1750 N.ar  199  HIS199     -0.2212
@<TRIPOS>BOND
     1    19    20    1
     2    19    18    1
     3    18    17    1
     4    37    38    1
     5    37    34    1
     6    36    35    2
     7    27    25    1
     8    17    16    1
     9    35    34    1
    10    35    39   am
    11    33    34    1
    12    16    13    1
    13    25    22    1
    14    25    26    1
    15    21    22    1
    16    40    39    1
    17    40    41    1
    18    22    23    1
    19    15    14    2
    20    13    14    1
    21    13    12    1
    22    42    41    2
    23    41    43   am
    24   100   102   ar
    25   100    98   ar
    26   102   101   ar
    27    43    44    1
    28    23    24    2
    29    96    95    2
    30    98    97    1
    31    98    99   ar
    32   101    99   ar
    33    97    94    1
    34    12     3   am
    35     4     3    2
    36    44    47    1
    37    44    45    1
    38     3     2    1
    39    95    94    1
    40    94    93    1
    41     5     2    1
    42     5     6    1
    43    60    59    1
    44    45    46    2
    45    45    48   am
    46     2     1    1
    47    92    90   ar
    48    48    49    1
    49    28    29    1
    50    29    32    1
    51    29    30    1
    52     6     7   ar
    53     6     8   ar
    54    91    90   ar
    55     7     9   ar
    56    59    58    1
    57    90    89    1
    58    83    81   am
    59    31    30    2
    60    49    50    1
    61     8    10   ar
    62     9    11   ar
    63    58    57    1
    64    81    82    2
    65    81    80    1
    66    89    88    1
    67    57    56    1
    68    52    50   am
    69    52    53    1
    70    10    11   ar
    71    50    51    2
    72    73    72    1
    73    88    85    1
    74    56    53    1
    75    66    65    1
    76    79    80    1
    77    79    76    1
    78    53    54    1
    79    65    67    1
    80    65    62    1
    81    61    54   am
    82    61    62    1
    83    72    74    1
    84    72    69    1
    85    78    77    2
    86    87    86    2
    87    85    86    1
    88    85    84    1
    89    54    55    2
    90    77    76    1
    91    68    69    1
    92    68    63   am
    93    62    63    1
    94    76    75    1
    95    69    70    1
    96    63    64    2
    97    70    71    2
