@<TRIPOS>MOLECULE
tmp/1oy7E00.pdb
 112 111 0 0 0
SMALL
GASTEIGER

@<TRIPOS>ATOM
      1  N         29.5930   50.6900    0.4280 N.3    44  LYS44      -0.1245
      2  CA        28.4540   50.2870    1.2320 C.3    44  LYS44       0.1561
      3  C         27.8020   51.5110    1.8820 C.2    44  LYS44       0.2260
      4  O         28.4530   52.2960    2.5940 O.2    44  LYS44      -0.2867
      5  CB        28.8980   49.2760    2.2890 C.3    44  LYS44       0.0271
      6  CG        27.8560   48.2260    2.6500 C.3    44  LYS44       0.0035
      7  CD        28.0560   47.6940    4.0770 C.3    44  LYS44       0.0206
      8  CE        28.6530   46.2840    4.0840 C.3    44  LYS44       0.1093
      9  NZ        28.7050   45.7140    5.4570 N.3    44  LYS44      -0.1314
     10  N         23.9950   52.8790    3.9510 N.3    46  ARG46      -0.1245
     11  CA        22.9130   52.4020    4.7970 C.3    46  ARG46       0.1563
     12  C         21.9280   53.5350    5.0810 C.2    46  ARG46       0.2260
     13  O         22.3350   54.6750    5.3480 O.2    46  ARG46      -0.2867
     14  CB        23.4820   51.8650    6.1030 C.3    46  ARG46       0.0307
     15  CG        22.5690   50.9290    6.8310 C.3    46  ARG46       0.0489
     16  CD        23.1380   50.4000    8.1440 C.3    46  ARG46       0.2205
     17  NE        24.2570   49.4790    7.9470 N.pl3  46  ARG46      -0.0865
     18  CZ        24.1390   48.2300    7.4980 C.cat  46  ARG46       0.5346
     19  NH1       22.9390   47.7340    7.1870 N.pl3  46  ARG46       0.1354
     20  NH2       25.2290   47.4740    7.3480 N.pl3  46  ARG46       0.1354
     21  N         20.9950   48.2560    3.9180 N.3    53  GLY53      -0.1210
     22  CA        22.3050   48.4450    3.3160 C.3    53  GLY53       0.1956
     23  C         22.3150   48.0930    1.8290 C.2    53  GLY53       0.2612
     24  O         21.6870   47.1190    1.3880 O.2    53  GLY53      -0.2717
     25  N         23.0230   48.9050    1.0520 N.am   54  LEU54      -0.1965
     26  CA        23.2030   48.6810   -0.3750 C.3    54  LEU54       0.1728
     27  C         24.6700   48.9060   -0.7440 C.2    54  LEU54       0.2616
     28  O         25.3790   49.7040   -0.1120 O.2    54  LEU54      -0.2715
     29  CB        22.3010   49.6150   -1.1990 C.3    54  LEU54       0.0311
     30  CG        20.7710   49.4710   -1.0910 C.3    54  LEU54       0.0022
     31  CD1       20.0590   50.7180   -1.5900 C.3    54  LEU54       0.0001
     32  CD2       20.2580   48.2380   -1.8270 C.3    54  LEU54       0.0001
     33  N         25.1170   48.1850   -1.7670 N.am   55  GLN55      -0.1963
     34  CA        26.4820   48.2830   -2.2690 C.3    55  GLN55       0.1733
     35  C         26.4780   47.9630   -3.7580 C.2    55  GLN55       0.2617
     36  O         25.4080   47.8220   -4.3500 O.2    55  GLN55      -0.2715
     37  CB        27.3970   47.3180   -1.5150 C.3    55  GLN55       0.0408
     38  CG        27.0190   45.8560   -1.6710 C.3    55  GLN55       0.0908
     39  CD        27.7530   44.9570   -0.7050 C.2    55  GLN55       0.2608
     40  OE1       27.3080   43.8420   -0.4380 O.2    55  GLN55      -0.2717
     41  NE2       28.8780   45.4310   -0.1780 N.am   55  GLN55      -0.0878
     42  N         27.6660   47.8260   -4.3470 N.am   56  SER56      -0.1936
     43  CA        27.8160   47.6040   -5.7930 C.3    56  SER56       0.2055
     44  C         27.0080   48.6200   -6.5990 C.2    56  SER56       0.2643
     45  O         26.1320   48.2620   -7.3930 O.2    56  SER56      -0.2714
     46  CB        27.4720   46.1660   -6.1930 C.3    56  SER56       0.2130
     47  OG        27.9920   45.2430   -5.2490 O.3    56  SER56      -0.2179
     48  N         27.3080   49.8910   -6.3600 N.am   57  TRP57      -0.1959
     49  CA        26.6490   50.9750   -7.0580 C.3    57  TRP57       0.1771
     50  C         27.2410   51.1060   -8.4630 C.2    57  TRP57       0.2619
     51  O         28.4630   51.1120   -8.6310 O.2    57  TRP57      -0.2715
     52  CB        26.7810   52.2620   -6.2490 C.3    57  TRP57       0.0590
     53  CG        25.9630   52.2210   -4.9800 C.ar   57  TRP57       0.0006
     54  CD1       26.3560   51.7360   -3.7600 C.ar   57  TRP57       0.0946
     55  CD2       24.6110   52.6720   -4.8120 C.ar   57  TRP57       0.0152
     56  NE1       25.3310   51.8570   -2.8520 N.ar   57  TRP57      -0.2442
     57  CE2       24.2490   52.4300   -3.4720 C.ar   57  TRP57       0.0810
     58  CE3       23.6620   53.2650   -5.6650 C.ar   57  TRP57       0.0012
     59  CZ2       22.9810   52.7520   -2.9660 C.ar   57  TRP57       0.0191
     60  CZ3       22.4020   53.5850   -5.1600 C.ar   57  TRP57       0.0001
     61  CH2       22.0740   53.3240   -3.8270 C.ar   57  TRP57       0.0015
     62  N         26.3650   51.1720   -9.4650 N.am   58  LYS58      -0.1977
     63  CA        26.7660   51.3400  -10.8600 C.3    58  LYS58       0.1596
     64  C         26.2570   52.6730  -11.3970 C.2    58  LYS58       0.2287
     65  O         25.2140   53.1530  -10.9640 O.2    58  LYS58      -0.2864
     66  CB        26.2080   50.2000  -11.7060 C.3    58  LYS58       0.0298
     67  CG        27.0620   48.9510  -11.6940 C.3    58  LYS58       0.0038
     68  CD        26.1960   47.7030  -11.6560 C.3    58  LYS58       0.0206
     69  CE        26.7850   46.6320  -10.7230 C.3    58  LYS58       0.1093
     70  NZ        25.7950   46.1330   -9.7080 N.3    58  LYS58      -0.1314
     71  N         22.4980   54.3130  -11.4590 N.3    61  ASP61      -0.1239
     72  CA        21.6880   53.9390  -10.3090 C.3    61  ASP61       0.1674
     73  C         21.0500   55.1890   -9.7140 C.2    61  ASP61       0.2266
     74  O         21.7220   56.2100   -9.5330 O.2    61  ASP61      -0.2867
     75  CB        22.5440   53.2410   -9.2560 C.3    61  ASP61       0.1410
     76  CG        22.7780   51.7700   -9.5600 C.2    61  ASP61       0.3668
     77  OD1       22.2690   51.2720  -10.5840 O.co2  61  ASP61      -0.2456
     78  OD2       23.4670   51.0320   -8.8220 O.co2  61  ASP61      -0.2456
     79  N         16.5740   52.8090   -5.9800 N.3    66  GLU66      -0.1245
     80  CA        17.1600   51.6430   -5.3200 C.3    66  GLU66       0.1567
     81  C         16.5540   51.4780   -3.9260 C.2    66  GLU66       0.2260
     82  O         16.2380   50.3630   -3.5160 O.2    66  GLU66      -0.2867
     83  CB        18.6950   51.7190   -5.2440 C.3    66  GLU66       0.0388
     84  CG        19.4300   51.6640   -6.5770 C.3    66  GLU66       0.1160
     85  CD        19.0110   50.5030   -7.4600 C.2    66  GLU66       0.3649
     86  OE1       19.2300   49.3300   -7.0790 O.co2  66  GLU66      -0.2457
     87  OE2       18.4710   50.7640   -8.5550 O.co2  66  GLU66      -0.2457
     88  N         14.3400   48.0180   -2.9460 N.3    70  TRP70      -0.1227
     89  CA        14.8570   47.0780   -1.9620 C.3    70  TRP70       0.1737
     90  C         14.2640   47.2050   -0.5700 C.2    70  TRP70       0.2595
     91  O         14.1770   46.2100    0.1490 O.2    70  TRP70      -0.2718
     92  CB        16.3840   47.1600   -1.9170 C.3    70  TRP70       0.0564
     93  CG        17.0040   46.7920   -3.2260 C.ar   70  TRP70       0.0003
     94  CD1       17.6340   47.6270   -4.0990 C.ar   70  TRP70       0.0946
     95  CD2       17.0360   45.4920   -3.8230 C.ar   70  TRP70       0.0152
     96  NE1       18.0680   46.9290   -5.2000 N.ar   70  TRP70      -0.2442
     97  CE2       17.7100   45.6140   -5.0610 C.ar   70  TRP70       0.0810
     98  CE3       16.5650   44.2250   -3.4370 C.ar   70  TRP70       0.0012
     99  CZ2       17.9220   44.5210   -5.9180 C.ar   70  TRP70       0.0191
    100  CZ3       16.7800   43.1390   -4.2860 C.ar   70  TRP70       0.0001
    101  CH2       17.4530   43.2980   -5.5130 C.ar   70  TRP70       0.0015
    102  N         13.8560   48.4210   -0.2000 N.am   71  PHE71      -0.1976
    103  CA        13.2820   48.6960    1.1240 C.3    71  PHE71       0.1639
    104  C         11.9750   49.5240    1.0330 C.2    71  PHE71       0.2290
    105  O         11.8610   50.5910    1.6440 O.2    71  PHE71      -0.2864
    106  CB        14.3240   49.3890    2.0270 C.3    71  PHE71       0.0560
    107  CG        15.7140   48.8030    1.9210 C.ar   71  PHE71      -0.0200
    108  CD1       15.9610   47.4860    2.3020 C.ar   71  PHE71      -0.0042
    109  CD2       16.7710   49.5670    1.4380 C.ar   71  PHE71      -0.0042
    110  CE1       17.2210   46.9350    2.1940 C.ar   71  PHE71      -0.0003
    111  CE2       18.0400   49.0220    1.3340 C.ar   71  PHE71      -0.0003
    112  CZ        18.2630   47.7000    1.7090 C.ar   71  PHE71      -0.0000
@<TRIPOS>BOND
     1    66    67    1
     2    66    63    1
     3    67    68    1
     4    68    69    1
     5    71    72    1
     6    64    65    2
     7    64    63    1
     8    63    62    1
     9    69    70    1
    10    77    76   ar
    11    72    73    1
    12    72    75    1
    13    73    74    2
    14    76    75    1
    15    76    78   ar
    16    62    50   am
    17    51    50    2
    18    87    85   ar
    19    50    49    1
    20    85    86   ar
    21    85    84    1
    22    45    44    2
    23    49    48    1
    24    49    52    1
    25    44    48   am
    26    44    43    1
    27    84    83    1
    28    52    53    1
    29    46    43    1
    30    46    47    1
    31    79    80    1
    32    99   101   ar
    33    99    97   ar
    34    43    42    1
    35    58    60   ar
    36    58    55   ar
    37   101   100   ar
    38    80    83    1
    39    80    81    1
    40    96    97   ar
    41    96    94   ar
    42    60    61   ar
    43    97    95   ar
    44    53    55   ar
    45    53    54   ar
    46    55    57   ar
    47    36    35    2
    48    42    35   am
    49   100    98   ar
    50    94    93   ar
    51    81    82    2
    52    61    59   ar
    53    95    98   ar
    54    95    93   ar
    55    54    56   ar
    56    35    34    1
    57    57    59   ar
    58    57    56   ar
    59    93    92    1
    60    88    89    1
    61    34    33    1
    62    34    37    1
    63    89    92    1
    64    89    90    1
    65    32    30    1
    66    33    27   am
    67    38    37    1
    68    38    39    1
    69    31    30    1
    70    29    30    1
    71    29    26    1
    72    27    26    1
    73    27    28    2
    74    39    40    2
    75    39    41   am
    76    90   102   am
    77    90    91    2
    78    26    25    1
    79   102   103    1
    80     1     2    1
    81   104   103    1
    82   104   105    2
    83    25    23   am
    84   103   106    1
    85     2     3    1
    86     2     5    1
    87   111   109   ar
    88   111   112   ar
    89    24    23    2
    90   109   107   ar
    91   112   110   ar
    92    23    22    1
    93     3     4    2
    94   107   106    1
    95   107   108   ar
    96   110   108   ar
    97     5     6    1
    98     6     7    1
    99    22    21    1
   100    10    11    1
   101     7     8    1
   102     8     9    1
   103    11    12    1
   104    11    14    1
   105    12    13    2
   106    14    15    1
   107    15    16    1
   108    19    18    1
   109    20    18    1
   110    18    17    2
   111    17    16    1
