@<TRIPOS>MOLECULE
tmp/1oyfA00.pdb
 139 136 0 0 0
SMALL
GASTEIGER

@<TRIPOS>ATOM
      1  N         20.2350   37.1420   28.9890 N.3     2  LEU2       -0.1245
      2  CA        20.1660   35.6910   29.0080 C.3     2  LEU2        0.1561
      3  C         21.4780   35.0590   28.5700 C.2     2  LEU2        0.2260
      4  O         21.8180   33.9630   29.0030 O.2     2  LEU2       -0.2867
      5  CB        19.0230   35.2270   28.1030 C.3     2  LEU2        0.0270
      6  CG        17.6340   35.1360   28.7510 C.3     2  LEU2        0.0019
      7  CD1       17.5930   35.9420   30.0370 C.3     2  LEU2        0.0001
      8  CD2       16.5800   35.6220   27.7720 C.3     2  LEU2        0.0001
      9  N         23.5160   35.0410   31.6440 N.3     5  PHE5       -0.1227
     10  CA        22.8590   34.1480   32.5860 C.3     5  PHE5        0.1736
     11  C         23.0000   32.6750   32.1960 C.2     5  PHE5        0.2596
     12  O         23.4590   31.8470   32.9950 O.2     5  PHE5       -0.2718
     13  CB        21.3730   34.5230   32.7040 C.3     5  PHE5        0.0547
     14  CG        20.6350   33.7790   33.7870 C.ar    5  PHE5       -0.0202
     15  CD1       21.2860   33.3960   34.9610 C.ar    5  PHE5       -0.0042
     16  CD2       19.2790   33.4950   33.6620 C.ar    5  PHE5       -0.0042
     17  CE1       20.5930   32.7350   35.9900 C.ar    5  PHE5       -0.0003
     18  CE2       18.5820   32.8360   34.6890 C.ar    5  PHE5       -0.0003
     19  CZ        19.2370   32.4590   35.8470 C.ar    5  PHE5       -0.0000
     20  N         22.6150   32.3630   30.9620 N.am    6  GLY6       -0.1957
     21  CA        22.6610   30.9950   30.4770 C.3     6  GLY6        0.1869
     22  C         24.0150   30.3310   30.5860 C.2     6  GLY6        0.2309
     23  O         24.1370   29.1510   30.9260 O.2     6  GLY6       -0.2863
     24  N         25.1350   29.6540   34.2450 N.3     9  ILE9       -0.1245
     25  CA        24.5330   28.3880   34.6510 C.3     9  ILE9        0.1561
     26  C         25.3390   27.1440   34.2790 C.2     9  ILE9        0.2260
     27  O         25.3760   26.1760   35.0260 O.2     9  ILE9       -0.2867
     28  CB        23.1220   28.2550   34.0370 C.3     9  ILE9        0.0252
     29  CG1       22.1680   29.2250   34.7390 C.3     9  ILE9        0.0019
     30  CG2       22.6410   26.8120   34.1130 C.3     9  ILE9        0.0019
     31  CD1       20.7840   29.2740   34.1480 C.3     9  ILE9        0.0001
     32  N         21.7890   25.7250   29.8700 N.3    17  ALA17      -0.1231
     33  CA        20.5760   26.4060   30.3160 C.3    17  ALA17       0.1694
     34  C         19.3340   25.8720   29.5900 C.2    17  ALA17       0.2591
     35  O         18.3200   25.6410   30.2300 O.2    17  ALA17      -0.2718
     36  CB        20.7160   27.8980   30.1060 C.3    17  ALA17       0.0304
     37  N         19.4070   25.7070   28.2760 N.am   18  ILE18      -0.1980
     38  CA        18.2780   25.1980   27.5510 C.3    18  ILE18       0.1595
     39  C         18.5540   23.6950   27.5160 C.2    18  ILE18       0.2287
     40  O         19.6970   23.2630   27.2240 O.2    18  ILE18      -0.2864
     41  CB        18.1570   25.8710   26.1410 C.3    18  ILE18       0.0276
     42  CG1       17.6680   27.3190   26.3940 C.3    18  ILE18       0.0022
     43  CG2       17.1730   25.1520   25.2540 C.3    18  ILE18       0.0022
     44  CD1       17.1150   27.9780   25.1470 C.3    18  ILE18       0.0001
     45  N         17.0170   23.7880   32.1790 N.3    21  TYR21      -0.1227
     46  CA        16.3100   24.8010   32.9590 C.3    21  TYR21       0.1736
     47  C         15.2290   25.5980   32.3040 C.2    21  TYR21       0.2596
     48  O         14.4400   26.2390   32.9860 O.2    21  TYR21      -0.2718
     49  CB        17.3040   25.7960   33.5220 C.3    21  TYR21       0.0548
     50  CG        18.1800   25.1620   34.5390 C.ar   21  TYR21      -0.0200
     51  CD1       17.7650   25.0330   35.8680 C.ar   21  TYR21      -0.0009
     52  CD2       19.4120   24.6410   34.1750 C.ar   21  TYR21      -0.0009
     53  CE1       18.5650   24.3920   36.8080 C.ar   21  TYR21       0.0417
     54  CE2       20.2130   24.0100   35.0980 C.ar   21  TYR21       0.0417
     55  CZ        19.7830   23.8840   36.4080 C.ar   21  TYR21       0.1957
     56  OH        20.5630   23.2000   37.3020 O.3    21  TYR21      -0.2866
     57  N         15.1970   25.5880   30.9770 N.am   22  SER22      -0.1952
     58  CA        14.2050   26.3810   30.2500 C.3    22  SER22       0.1924
     59  C         12.7420   26.0970   30.6240 C.2    22  SER22       0.2314
     60  O         11.8770   26.9160   30.3840 O.2    22  SER22      -0.2863
     61  CB        14.4180   26.2080   28.7170 C.3    22  SER22       0.2116
     62  OG        14.5830   24.8240   28.4010 O.3    22  SER22      -0.2180
     63  N          8.3620   27.5890   37.7930 N.3    27  TYR27      -0.1241
     64  CA         8.9490   28.9310   37.5720 C.3    27  TYR27       0.1605
     65  C         10.2130   28.9490   36.7520 C.2    27  TYR27       0.2264
     66  O         10.7290   30.0030   36.4000 O.2    27  TYR27      -0.2867
     67  CB         9.2890   29.6580   38.8640 C.3    27  TYR27       0.0534
     68  CG         8.0760   30.0190   39.6540 C.ar   27  TYR27      -0.0201
     69  CD1        7.6690   29.2000   40.6840 C.ar   27  TYR27      -0.0009
     70  CD2        7.3030   31.1540   39.3580 C.ar   27  TYR27      -0.0009
     71  CE1        6.5360   29.4720   41.4180 C.ar   27  TYR27       0.0417
     72  CE2        6.1560   31.4420   40.1000 C.ar   27  TYR27       0.0417
     73  CZ         5.7780   30.5930   41.1230 C.ar   27  TYR27       0.1957
     74  OH         4.6110   30.8680   41.7990 O.3    27  TYR27      -0.2866
     75  N         12.1310   28.7530   33.4910 N.3    29  GLY29      -0.1210
     76  CA        11.8690   29.0450   32.1100 C.3    29  GLY29       0.1956
     77  C         11.0920   30.2460   32.3180 C.2    29  GLY29       0.2611
     78  O         11.0240   30.7830   33.4090 O.2    29  GLY29      -0.2717
     79  N         10.3650   30.9310   31.6090 N.am   30  TRP30      -0.1976
     80  CA         9.4800   31.8560   32.2160 C.3    30  TRP30       0.1640
     81  C          8.1350   31.2950   32.2910 C.2    30  TRP30       0.2290
     82  O          7.6670   30.5640   31.4170 O.2    30  TRP30      -0.2864
     83  CB         9.4910   33.2030   31.5580 C.3    30  TRP30       0.0576
     84  CG        10.6970   33.8630   31.9620 C.ar   30  TRP30       0.0006
     85  CD1       10.9070   34.5980   33.1040 C.ar   30  TRP30       0.0946
     86  CD2       11.9110   33.8590   31.2540 C.ar   30  TRP30       0.0152
     87  NE1       12.1970   35.0610   33.1310 N.ar   30  TRP30      -0.2442
     88  CE2       12.8490   34.6080   31.9900 C.ar   30  TRP30       0.0810
     89  CE3       12.3250   33.2850   30.0360 C.ar   30  TRP30       0.0012
     90  CZ2       14.1520   34.8110   31.5740 C.ar   30  TRP30       0.0191
     91  CZ3       13.6110   33.4820   29.6070 C.ar   30  TRP30       0.0001
     92  CH2       14.5180   34.2360   30.3720 C.ar   30  TRP30       0.0015
     93  N         14.2990   29.5270   40.7910 N.3    44  CYS44      -0.1235
     94  CA        13.7660   30.2150   39.6470 C.3    44  CYS44       0.1677
     95  C         12.7590   31.2350   40.1650 C.2    44  CYS44       0.2270
     96  O         12.6750   32.3440   39.6500 O.2    44  CYS44      -0.2867
     97  CB        13.1170   29.2130   38.6880 C.3    44  CYS44       0.0956
     98  SG        14.3480   28.2390   37.8070 S.3    44  CYS44      -0.0801
     99  N         14.5720   34.0870   41.7030 N.3    47  HIS47      -0.1226
    100  CA        15.2140   34.8230   40.6230 C.3    47  HIS47       0.1752
    101  C         14.1930   35.7290   39.9330 C.2    47  HIS47       0.2596
    102  O         14.5220   36.8320   39.5480 O.2    47  HIS47      -0.2718
    103  CB        15.8740   33.8480   39.6310 C.3    47  HIS47       0.0759
    104  CG        16.5130   34.5140   38.4500 C.ar   47  HIS47       0.0818
    105  ND1       15.7950   34.8980   37.3360 N.ar   47  HIS47      -0.2268
    106  CD2       17.7990   34.8640   38.2030 C.ar   47  HIS47       0.1154
    107  CE1       16.6090   35.4520   36.4570 C.ar   47  HIS47       0.1986
    108  NE2       17.8320   35.4440   36.9580 N.ar   47  HIS47      -0.2212
    109  N         12.9520   35.2630   39.8100 N.am   48  ASP48      -0.1974
    110  CA        11.8730   36.0390   39.1960 C.3    48  ASP48       0.1709
    111  C         11.5180   37.2560   40.0670 C.2    48  ASP48       0.2293
    112  O         11.2360   38.3380   39.5460 O.2    48  ASP48      -0.2864
    113  CB        10.6390   35.1510   39.0160 C.3    48  ASP48       0.1436
    114  CG        10.1110   35.1570   37.5840 C.2    48  ASP48       0.3671
    115  OD1        9.2360   35.9930   37.2550 O.co2  48  ASP48      -0.2456
    116  OD2       10.5870   34.3250   36.7790 O.co2  48  ASP48      -0.2456
    117  N         14.2850   39.8250   39.4660 N.3    51  TYR51      -0.1241
    118  CA        14.1420   40.5820   38.2350 C.3    51  TYR51       0.1605
    119  C         13.0120   41.5720   38.4220 C.2    51  TYR51       0.2264
    120  O         13.0660   42.6930   37.9260 O.2    51  TYR51      -0.2867
    121  CB        13.8220   39.6500   37.0640 C.3    51  TYR51       0.0534
    122  CG        15.0440   39.1810   36.3190 C.ar   51  TYR51      -0.0201
    123  CD1       16.2990   39.1700   36.9360 C.ar   51  TYR51      -0.0009
    124  CD2       14.9470   38.7190   35.0080 C.ar   51  TYR51      -0.0009
    125  CE1       17.4210   38.7100   36.2640 C.ar   51  TYR51       0.0417
    126  CE2       16.0640   38.2510   34.3270 C.ar   51  TYR51       0.0417
    127  CZ        17.2930   38.2460   34.9580 C.ar   51  TYR51       0.1957
    128  OH        18.3860   37.7470   34.3020 O.3    51  TYR51      -0.2866
    129  N         21.4180   27.0720   41.8930 N.3    96  PHE96      -0.1241
    130  CA        21.2290   25.9090   41.0300 C.3    96  PHE96       0.1605
    131  C         22.2390   24.8250   41.3640 C.2    96  PHE96       0.2264
    132  O         21.8710   23.6700   41.5380 O.2    96  PHE96      -0.2867
    133  CB        21.3790   26.2500   39.5380 C.3    96  PHE96       0.0534
    134  CG        20.2060   26.9800   38.9350 C.ar   96  PHE96      -0.0203
    135  CD1       18.9060   26.7780   39.3930 C.ar   96  PHE96      -0.0042
    136  CD2       20.4040   27.8200   37.8460 C.ar   96  PHE96      -0.0042
    137  CE1       17.8280   27.3960   38.7660 C.ar   96  PHE96      -0.0003
    138  CE2       19.3310   28.4390   37.2130 C.ar   96  PHE96      -0.0003
    139  CZ        18.0460   28.2290   37.6690 C.ar   96  PHE96      -0.0000
@<TRIPOS>BOND
     1    44    42    1
     2    43    41    1
     3    41    42    1
     4    41    38    1
     5    40    39    2
     6    39    38    1
     7    38    37    1
     8     8     6    1
     9     5     6    1
    10     5     2    1
    11    37    34   am
    12    62    61    1
    13     3     4    2
    14     3     2    1
    15    61    58    1
    16     6     7    1
    17     1     2    1
    18    34    35    2
    19    34    33    1
    20    91    89   ar
    21    91    92   ar
    22    32    33    1
    23    89    86   ar
    24    36    33    1
    25    58    59    1
    26    58    57    1
    27    92    90   ar
    28    60    59    2
    29    21    22    1
    30    21    20    1
    31    22    23    2
    32    20    11   am
    33    57    47   am
    34    86    84   ar
    35    86    88   ar
    36    82    81    2
    37    83    84    1
    38    83    80    1
    39    90    88   ar
    40    79    80    1
    41    79    77   am
    42     9    10    1
    43    84    85   ar
    44    88    87   ar
    45    76    77    1
    46    76    75    1
    47    45    46    1
    48    11    10    1
    49    11    12    2
    50    80    81    1
    51    47    46    1
    52    47    48    2
    53    77    78    2
    54    10    13    1
    55    13    14    1
    56    46    49    1
    57    85    87   ar
    58    49    50    1
    59    16    14   ar
    60    16    18   ar
    61    14    15   ar
    62    28    30    1
    63    28    25    1
    64    28    29    1
    65    31    29    1
    66    52    50   ar
    67    52    54   ar
    68    24    25    1
    69    26    25    1
    70    26    27    2
    71   128   127    1
    72   126   127   ar
    73   126   124   ar
    74    50    51   ar
    75    18    19   ar
    76   127   125   ar
    77    15    17   ar
    78   124   122   ar
    79    54    55   ar
    80    19    17   ar
    81    51    53   ar
    82   125   123   ar
    83   122   123   ar
    84   122   121    1
    85    66    65    2
    86    55    53   ar
    87    55    56    1
    88   107   108   ar
    89   107   105   ar
    90    65    64    1
    91   116   114   ar
    92   108   106   ar
    93   121   118    1
    94   138   139   ar
    95   138   136   ar
    96   115   114   ar
    97   105   104   ar
    98    64    63    1
    99    64    67    1
   100   114   113    1
   101   139   137   ar
   102    98    97    1
   103   136   134   ar
   104   120   119    2
   105   106   104   ar
   106   118   119    1
   107   118   117    1
   108   104   103    1
   109    97    94    1
   110   137   135   ar
   111    67    68    1
   112   134   135   ar
   113   134   133    1
   114   113   110    1
   115   110   109    1
   116   110   111    1
   117    70    68   ar
   118    70    72   ar
   119   133   130    1
   120   112   111    2
   121   102   101    2
   122   103   100    1
   123    94    95    1
   124    94    93    1
   125    96    95    2
   126    68    69   ar
   127   109   101   am
   128   101   100    1
   129    72    73   ar
   130   100    99    1
   131    69    71   ar
   132   130   131    1
   133   130   129    1
   134    73    71   ar
   135    73    74    1
   136   131   132    2
