@<TRIPOS>MOLECULE
tmp/1oyjA00.pdb
 148 144 0 0 0
SMALL
GASTEIGER

@<TRIPOS>ATOM
      1  N         38.4120    7.9850   30.8670 N.3    11  PHE11      -0.1241
      2  CA        39.8130    8.2550   30.6520 C.3    11  PHE11       0.1605
      3  C         40.3330    6.8780   30.2280 C.2    11  PHE11       0.2264
      4  O         40.0360    5.8560   30.9150 O.2    11  PHE11      -0.2867
      5  CB        40.4760    8.7780   31.9150 C.3    11  PHE11       0.0534
      6  CG        41.9530    8.9670   31.7670 C.ar   11  PHE11      -0.0203
      7  CD1       42.4350    9.7140   30.7370 C.ar   11  PHE11      -0.0042
      8  CD2       42.8340    8.5070   32.7070 C.ar   11  PHE11      -0.0042
      9  CE1       43.8170    9.9440   30.5610 C.ar   11  PHE11      -0.0003
     10  CE2       44.2250    8.7520   32.5620 C.ar   11  PHE11      -0.0003
     11  CZ        44.7110    9.4410   31.4580 C.ar   11  PHE11      -0.0000
     12  N         42.9010    4.7080   30.2430 N.3    13  VAL13      -0.1231
     13  CA        43.6150    3.7530   31.1160 C.3    13  VAL13       0.1692
     14  C         42.8970    3.5000   32.4640 C.2    13  VAL13       0.2593
     15  O         43.3270    2.6650   33.2560 O.2    13  VAL13      -0.2718
     16  CB        45.0410    4.2850   31.3790 C.3    13  VAL13       0.0266
     17  CG1       44.9840    5.4240   32.4490 C.3    13  VAL13       0.0020
     18  CG2       45.9850    3.1700   31.8530 C.3    13  VAL13       0.0020
     19  N         41.7940    4.2210   32.7400 N.am   14  SER14      -0.1939
     20  CA        41.0430    3.9970   34.0030 C.3    14  SER14       0.2040
     21  C         40.4400    2.6050   34.2030 C.2    14  SER14       0.2485
     22  O         39.5400    2.2240   33.5050 O.2    14  SER14      -0.2729
     23  CB        39.8830    4.9850   34.1880 C.3    14  SER14       0.2129
     24  OG        39.2300    4.7570   35.4050 O.3    14  SER14      -0.2179
     25  N         40.8550    1.9540   35.2710 N.am   15  PRO15      -0.2715
     26  CA        40.3010    0.6440   35.6220 C.3    15  PRO15       0.1536
     27  C         38.8430    0.7830   35.9840 C.2    15  PRO15       0.2598
     28  O         38.0460   -0.1230   35.7280 O.2    15  PRO15      -0.2715
     29  CB        41.1610    0.2080   36.7730 C.3    15  PRO15       0.0310
     30  CG        41.8250    1.4220   37.2950 C.3    15  PRO15       0.0237
     31  CD        41.9440    2.3430   36.1480 C.3    15  PRO15       0.0939
     32  N         38.4810    1.9560   36.5950 N.am   16  PHE16      -0.1974
     33  CA        37.1380    2.1830   37.0550 C.3    16  PHE16       0.1639
     34  C         36.1710    2.3880   35.8860 C.2    16  PHE16       0.2290
     35  O         35.0950    1.8020   35.8180 O.2    16  PHE16      -0.2864
     36  CB        37.1220    3.3980   37.9820 C.3    16  PHE16       0.0560
     37  CG        38.0160    3.2550   39.1650 C.ar   16  PHE16      -0.0200
     38  CD1       39.1590    3.9830   39.2720 C.ar   16  PHE16      -0.0042
     39  CD2       37.6750    2.4170   40.1720 C.ar   16  PHE16      -0.0042
     40  CE1       39.9650    3.8920   40.3950 C.ar   16  PHE16      -0.0003
     41  CE2       38.4810    2.3030   41.2840 C.ar   16  PHE16      -0.0003
     42  CZ        39.6340    3.0390   41.3550 C.ar   16  PHE16      -0.0000
     43  N         35.5540   -0.9470   34.0290 N.3    19  ARG19      -0.1245
     44  CA        34.5080   -1.7040   34.5380 C.3    19  ARG19       0.1563
     45  C         33.2080   -1.4930   33.7970 C.2    19  ARG19       0.2260
     46  O         32.5170   -2.4660   33.5120 O.2    19  ARG19      -0.2867
     47  CB        34.1980   -1.4560   36.0300 C.3    19  ARG19       0.0307
     48  CG        35.2960   -1.7440   36.9840 C.3    19  ARG19       0.0489
     49  CD        35.0530   -1.1800   38.3550 C.3    19  ARG19       0.2205
     50  NE        35.9870   -1.6950   39.3250 N.pl3  19  ARG19      -0.0865
     51  CZ        36.0110   -1.3680   40.5950 C.cat  19  ARG19       0.5346
     52  NH1       35.2860   -0.3440   41.0480 N.pl3  19  ARG19       0.1354
     53  NH2       36.7860   -2.0350   41.4190 N.pl3  19  ARG19       0.1354
     54  N         41.9470   14.8040   32.0370 N.3    38  LEU38      -0.1245
     55  CA        41.7370   15.0570   33.4670 C.3    38  LEU38       0.1561
     56  C         42.3930   16.3380   34.0100 C.2    38  LEU38       0.2260
     57  O         41.9450   16.8680   35.0770 O.2    38  LEU38      -0.2867
     58  CB        42.0740   13.8460   34.2920 C.3    38  LEU38       0.0270
     59  CG        41.1330   12.6740   34.0000 C.3    38  LEU38       0.0019
     60  CD1       41.5090   11.5020   34.9240 C.3    38  LEU38       0.0001
     61  CD2       39.6390   12.9250   34.2230 C.3    38  LEU38       0.0001
     62  N         39.3580   19.1510   32.5730 N.3    41  LYS41      -0.1245
     63  CA        38.0370   18.5270   32.6220 C.3    41  LYS41       0.1561
     64  C         36.9920   19.3230   31.8840 C.2    41  LYS41       0.2260
     65  O         37.0310   20.5340   31.9170 O.2    41  LYS41      -0.2867
     66  CB        37.5910   18.2630   34.0230 C.3    41  LYS41       0.0271
     67  CG        38.4440   17.1770   34.7470 C.3    41  LYS41       0.0035
     68  CD        38.1250   16.9910   36.2270 C.3    41  LYS41       0.0206
     69  CE        39.2600   16.3080   36.9940 C.3    41  LYS41       0.1093
     70  NZ        39.0700   16.1450   38.5130 N.3    41  LYS41      -0.1314
     71  N         33.8850   15.1230   40.7490 N.3    53  ARG53      -0.1231
     72  CA        34.5980   15.5900   39.5510 C.3    53  ARG53       0.1694
     73  C         35.5400   14.5700   38.9950 C.2    53  ARG53       0.2592
     74  O         36.6260   14.9070   38.5480 O.2    53  ARG53      -0.2718
     75  CB        35.3420   16.9150   39.7960 C.3    53  ARG53       0.0321
     76  CG        34.3650   18.0110   40.3430 C.3    53  ARG53       0.0489
     77  CD        34.9690   19.0430   41.2060 C.3    53  ARG53       0.2205
     78  NE        35.2560   18.6190   42.5800 N.pl3  53  ARG53      -0.0865
     79  CZ        36.4580   18.2270   43.0220 C.cat  53  ARG53       0.5346
     80  NH1       37.5140   18.1510   42.1990 N.pl3  53  ARG53       0.1354
     81  NH2       36.6060   17.9000   44.3030 N.pl3  53  ARG53       0.1354
     82  N         35.1310   13.3190   39.0990 N.am   54  LYS54      -0.1966
     83  CA        35.8590   12.1770   38.6290 C.3    54  LYS54       0.1728
     84  C         35.2000   11.3750   37.4880 C.2    54  LYS54       0.2616
     85  O         34.0070   11.4370   37.2820 O.2    54  LYS54      -0.2715
     86  CB        36.0470   11.1970   39.7900 C.3    54  LYS54       0.0311
     87  CG        37.1310   11.6500   40.7510 C.3    54  LYS54       0.0038
     88  CD        37.1750   10.8400   41.9990 C.3    54  LYS54       0.0206
     89  CE        38.3180   11.2600   42.9250 C.3    54  LYS54       0.1093
     90  NZ        38.4660   10.1730   43.9470 N.3    54  LYS54      -0.1314
     91  N         36.0060   10.6100   36.7270 N.am   55  ILE55      -0.1964
     92  CA        35.3710    9.7260   35.7810 C.3    55  ILE55       0.1712
     93  C         35.4600    8.3810   36.4380 C.2    55  ILE55       0.2458
     94  O         36.2440    8.2350   37.3320 O.2    55  ILE55      -0.2730
     95  CB        36.0360    9.8000   34.3530 C.3    55  ILE55       0.0289
     96  CG1       37.5130    9.4980   34.4590 C.3    55  ILE55       0.0022
     97  CG2       35.8220   11.1800   33.7800 C.3    55  ILE55       0.0023
     98  CD1       37.7980    7.9250   34.7400 C.3    55  ILE55       0.0001
     99  N         34.6710    7.3830   36.0440 N.am   56  PRO56      -0.2727
    100  CA        33.6630    7.4390   35.0220 C.3    56  PRO56       0.1402
    101  C         32.3340    7.9980   35.4430 C.2    56  PRO56       0.2269
    102  O         31.9370    8.0360   36.6070 O.2    56  PRO56      -0.2865
    103  CB        33.4520    5.9550   34.6960 C.3    56  PRO56       0.0296
    104  CG        33.6860    5.2390   36.0000 C.3    56  PRO56       0.0237
    105  CD        34.8490    6.0140   36.5300 C.3    56  PRO56       0.0939
    106  N         30.3940    6.8250   40.2190 N.3    67  GLU67      -0.1231
    107  CA        31.0030    5.8250   41.0760 C.3    67  GLU67       0.1699
    108  C         30.7970    4.4950   40.3750 C.2    67  GLU67       0.2593
    109  O         29.7050    4.0420   40.2170 O.2    67  GLU67      -0.2718
    110  CB        30.4590    5.8190   42.5170 C.3    67  GLU67       0.0402
    111  CG        30.9390    7.0880   43.2970 C.3    67  GLU67       0.1161
    112  CD        32.4330    7.1150   43.5520 C.2    67  GLU67       0.3649
    113  OE1       33.0100    6.0350   43.9710 O.co2  67  GLU67      -0.2457
    114  OE2       33.0680    8.1990   43.3560 O.co2  67  GLU67      -0.2457
    115  N         31.9000    3.9280   39.9140 N.am   68  SER68      -0.1938
    116  CA        31.8710    2.7250   39.0930 C.3    68  SER68       0.2055
    117  C         30.9960    1.6230   39.6470 C.2    68  SER68       0.2642
    118  O         30.1780    1.0160   38.9280 O.2    68  SER68      -0.2714
    119  CB        33.2850    2.2870   38.7290 C.3    68  SER68       0.2130
    120  OG        34.0560    1.9690   39.8270 O.3    68  SER68      -0.2179
    121  N         31.0740    1.3520   40.9320 N.am   69  LEU69      -0.1977
    122  CA        30.2950    0.1900   41.4300 C.3    69  LEU69       0.1596
    123  C         28.7870    0.4840   41.4710 C.2    69  LEU69       0.2287
    124  O         27.9450   -0.4140   41.3490 O.2    69  LEU69      -0.2864
    125  CB        30.7760   -0.2490   42.8230 C.3    69  LEU69       0.0297
    126  CG        32.1440   -0.9040   42.9290 C.3    69  LEU69       0.0022
    127  CD1       32.4640   -1.4390   44.3540 C.3    69  LEU69       0.0001
    128  CD2       32.2680   -2.0360   41.9840 C.3    69  LEU69       0.0001
    129  N         37.5950   -2.1530   45.7130 N.3   110  ASP110     -0.1239
    130  CA        37.6810   -0.6990   45.7290 C.3   110  ASP110      0.1674
    131  C         38.5940   -0.2020   46.8370 C.2   110  ASP110      0.2266
    132  O         39.2730    0.7950   46.6610 O.2   110  ASP110     -0.2867
    133  CB        36.3200   -0.0720   45.9220 C.3   110  ASP110      0.1410
    134  CG        35.6160    0.2190   44.6230 C.2   110  ASP110      0.3668
    135  OD1       34.6390    0.9990   44.6140 O.co2 110  ASP110     -0.2456
    136  OD2       36.0030   -0.1970   43.5630 O.co2 110  ASP110     -0.2456
    137  N         43.4500   -0.0900   43.8510 N.3   114  TYR114     -0.1241
    138  CA        43.9440    1.1690   43.3480 C.3   114  TYR114      0.1605
    139  C         44.9370    1.8040   44.2850 C.2   114  TYR114      0.2264
    140  O         46.0450    2.1440   43.8740 O.2   114  TYR114     -0.2867
    141  CB        42.8120    2.0860   43.1200 C.3   114  TYR114      0.0534
    142  CG        43.2210    3.4580   42.6760 C.ar  114  TYR114     -0.0201
    143  CD1       43.6390    3.6540   41.4050 C.ar  114  TYR114     -0.0009
    144  CD2       43.1040    4.5370   43.5040 C.ar  114  TYR114     -0.0009
    145  CE1       43.9670    4.8790   40.9480 C.ar  114  TYR114      0.0417
    146  CE2       43.4310    5.8170   43.0450 C.ar  114  TYR114      0.0417
    147  CZ        43.8660    5.9580   41.7470 C.ar  114  TYR114      0.1957
    148  OH        44.2260    7.1860   41.2090 O.3   114  TYR114     -0.2866
@<TRIPOS>BOND
     1     3     2    1
     2     3     4    2
     3    12    13    1
     4     9     7   ar
     5     9    11   ar
     6     2     1    1
     7     2     5    1
     8     7     6   ar
     9    13    16    1
    10    13    14    1
    11    16    18    1
    12    16    17    1
    13    11    10   ar
    14     6     5    1
    15     6     8   ar
    16    64    65    2
    17    64    63    1
    18    54    55    1
    19    14    19   am
    20    14    15    2
    21    10     8   ar
    22    62    63    1
    23    63    66    1
    24    19    20    1
    25    55    56    1
    26    55    58    1
    27    22    21    2
    28    46    45    2
    29    97    95    1
    30    45    44    1
    31    59    61    1
    32    59    58    1
    33    59    60    1
    34    20    23    1
    35    20    21    1
    36    56    57    2
    37    66    67    1
    38    43    44    1
    39    23    24    1
    40    21    25   am
    41    95    96    1
    42    95    92    1
    43    96    98    1
    44    44    47    1
    45   103   100    1
    46   103   104    1
    47    67    68    1
    48   100   101    1
    49   100    99    1
    50    25    26    1
    51    25    31    1
    52   101   102    2
    53    26    27    1
    54    26    29    1
    55    28    27    2
    56    92    93    1
    57    92    91    1
    58    35    34    2
    59    34    33    1
    60    27    32   am
    61   104   105    1
    62    47    48    1
    63    99    93   am
    64    99   105    1
    65    31    30    1
    66    68    69    1
    67    93    94    2
    68    32    33    1
    69    91    84   am
    70    29    30    1
    71    48    49    1
    72    69    70    1
    73    33    36    1
    74    85    84    2
    75    84    83    1
    76    36    37    1
    77    49    50    1
    78    74    73    2
    79    83    82    1
    80    83    86    1
    81   119   116    1
    82   119   120    1
    83   118   117    2
    84    73    82   am
    85    73    72    1
    86   116   117    1
    87   116   115    1
    88    37    38   ar
    89    37    39   ar
    90    38    40   ar
    91    50    51    2
    92    72    75    1
    93    72    71    1
    94   117   121   am
    95    86    87    1
    96    75    76    1
    97   115   108   am
    98    39    41   ar
    99   109   108    2
   100   106   107    1
   101    76    77    1
   102   108   107    1
   103    40    42   ar
   104    51    52    1
   105    51    53    1
   106    87    88    1
   107   121   122    1
   108   145   143   ar
   109   145   147   ar
   110   107   110    1
   111    77    78    1
   112   148   147    1
   113    41    42   ar
   114   124   123    2
   115   143   142   ar
   116   122   123    1
   117   122   125    1
   118   147   146   ar
   119   128   126    1
   120    88    89    1
   121    80    79    1
   122   110   111    1
   123    78    79    2
   124   142   141    1
   125   142   144   ar
   126   125   126    1
   127    89    90    1
   128   126   127    1
   129    79    81    1
   130   146   144   ar
   131   141   138    1
   132   111   112    1
   133   138   137    1
   134   138   139    1
   135   114   112   ar
   136   112   113   ar
   137   136   134   ar
   138   140   139    2
   139   135   134   ar
   140   134   133    1
   141   129   130    1
   142   130   133    1
   143   130   131    1
   144   132   131    2
