@<TRIPOS>MOLECULE
tmp/1oyjC01.pdb
 89 86 0 0 0
SMALL
GASTEIGER

@<TRIPOS>ATOM
      1  N         52.7370   48.0450   83.2590 N.3   120  LEU120     -0.1231
      2  CA        53.8620   47.3120   82.7070 C.3   120  LEU120      0.1693
      3  C         54.6650   48.1620   81.7450 C.2   120  LEU120      0.2592
      4  O         55.8530   47.9220   81.5860 O.2   120  LEU120     -0.2718
      5  CB        53.4550   46.0220   82.0420 C.3   120  LEU120      0.0284
      6  CG        52.6900   45.0520   82.9430 C.3   120  LEU120      0.0019
      7  CD1       52.2940   43.7220   82.2090 C.3   120  LEU120      0.0001
      8  CD2       53.4290   44.7230   84.2060 C.3   120  LEU120      0.0001
      9  N         54.0510   49.1560   81.0990 N.am  121  TRP121     -0.1976
     10  CA        54.8880   49.9940   80.2260 C.3   121  TRP121      0.1640
     11  C         55.1250   51.3660   80.7520 C.2   121  TRP121      0.2290
     12  O         55.9630   52.0590   80.2080 O.2   121  TRP121     -0.2864
     13  CB        54.3470   50.0900   78.8140 C.3   121  TRP121      0.0576
     14  CG        52.9600   50.3380   78.7670 C.ar  121  TRP121      0.0006
     15  CD1       52.3140   51.5370   78.8280 C.ar  121  TRP121      0.0946
     16  CD2       51.9870   49.3630   78.5950 C.ar  121  TRP121      0.0152
     17  NE1       50.9630   51.3230   78.7230 N.ar  121  TRP121     -0.2442
     18  CE2       50.7560   49.9910   78.5710 C.ar  121  TRP121      0.0810
     19  CE3       52.0350   47.9850   78.4650 C.ar  121  TRP121      0.0012
     20  CZ2       49.6050   49.2990   78.4630 C.ar  121  TRP121      0.0191
     21  CZ3       50.8860   47.3160   78.3200 C.ar  121  TRP121      0.0001
     22  CH2       49.7000   47.9450   78.3440 C.ar  121  TRP121      0.0015
     23  N         58.7240   47.6640   87.5730 N.3   128  GLN128     -0.1231
     24  CA        58.1660   46.9890   86.3950 C.3   128  GLN128      0.1698
     25  C         58.0930   45.4600   86.5990 C.2   128  GLN128      0.2592
     26  O         57.0610   44.8440   86.2620 O.2   128  GLN128     -0.2718
     27  CB        58.9200   47.3520   85.1410 C.3   128  GLN128      0.0381
     28  CG        58.3280   46.8120   83.7920 C.3   128  GLN128      0.0905
     29  CD        59.2170   47.1440   82.5750 C.2   128  GLN128      0.2608
     30  OE1       60.3860   46.8170   82.5960 O.2   128  GLN128     -0.2717
     31  NE2       58.6430   47.7290   81.4970 N.am  128  GLN128     -0.0878
     32  N         59.1700   44.8560   87.0580 N.am  129  ALA129     -0.1980
     33  CA        59.1420   43.4510   87.3070 C.3   129  ALA129      0.1597
     34  C         58.0370   43.1320   88.3720 C.2   129  ALA129      0.2287
     35  O         57.3840   42.1210   88.3030 O.2   129  ALA129     -0.2864
     36  CB        60.5090   42.9800   87.8030 C.3   129  ALA129      0.0319
     37  N         56.3690   40.7630   77.2350 N.3   179  ARG179     -0.1231
     38  CA        57.5960   41.4300   76.9390 C.3   179  ARG179      0.1694
     39  C         57.9230   42.4500   78.0320 C.2   179  ARG179      0.2592
     40  O         59.0200   42.4930   78.5470 O.2   179  ARG179     -0.2718
     41  CB        57.4870   42.1530   75.5980 C.3   179  ARG179      0.0321
     42  CG        57.4410   41.2030   74.4110 C.3   179  ARG179      0.0489
     43  CD        58.7670   40.6120   74.0790 C.3   179  ARG179      0.2205
     44  NE        59.2510   41.3050   72.9010 N.pl3 179  ARG179     -0.0865
     45  CZ        60.4310   41.8890   72.7720 C.cat 179  ARG179      0.5346
     46  NH1       61.3160   41.9090   73.7550 N.pl3 179  ARG179      0.1354
     47  NH2       60.7060   42.4760   71.6270 N.pl3 179  ARG179      0.1354
     48  N         56.9580   43.2540   78.4290 N.am  180  CYS180     -0.1956
     49  CA        57.2720   44.2790   79.4120 C.3   180  CYS180      0.1843
     50  C         57.3660   43.6830   80.8160 C.2   180  CYS180      0.2626
     51  O         58.0950   44.1860   81.6450 O.2   180  CYS180     -0.2714
     52  CB        56.2120   45.3300   79.4200 C.3   180  CYS180      0.0997
     53  SG        56.0170   46.1440   77.8630 S.3   180  CYS180     -0.0797
     54  N         56.5940   42.6260   81.0590 N.am  181  GLY181     -0.1940
     55  CA        56.5090   42.0450   82.3700 C.3   181  GLY181      0.2014
     56  C         57.4260   40.9240   82.7350 C.2   181  GLY181      0.2639
     57  O         57.4740   40.5420   83.9100 O.2   181  GLY181     -0.2714
     58  N         58.1730   40.4230   81.7770 N.am  182  GLY182     -0.1954
     59  CA        59.1080   39.3390   82.0500 C.3   182  GLY182      0.1869
     60  C         58.4760   37.9940   82.3230 C.2   182  GLY182      0.2309
     61  O         58.9840   37.2460   83.1290 O.2   182  GLY182     -0.2863
     62  N         51.7120   45.6310   70.3170 N.3   216  TYR216     -0.1241
     63  CA        53.0640   45.8830   70.8570 C.3   216  TYR216      0.1605
     64  C         53.6970   47.1760   70.3000 C.2   216  TYR216      0.2264
     65  O         54.3120   47.9360   71.0240 O.2   216  TYR216     -0.2867
     66  CB        53.9740   44.6990   70.6100 C.3   216  TYR216      0.0534
     67  CG        55.2900   44.8010   71.3380 C.ar  216  TYR216     -0.0201
     68  CD1       55.3420   45.0070   72.7000 C.ar  216  TYR216     -0.0009
     69  CD2       56.5060   44.6820   70.6580 C.ar  216  TYR216     -0.0009
     70  CE1       56.5550   45.1080   73.3760 C.ar  216  TYR216      0.0417
     71  CE2       57.7130   44.7710   71.3440 C.ar  216  TYR216      0.0417
     72  CZ        57.7180   44.9660   72.6870 C.ar  216  TYR216      0.1957
     73  OH        58.8990   45.0430   73.3930 O.3   216  TYR216     -0.2866
     74  N         52.0800   49.9640   72.1540 N.3   219  VAL219     -0.1245
     75  CA        52.6070   50.0620   73.5260 C.3   219  VAL219      0.1561
     76  C         53.9100   50.8810   73.4340 C.2   219  VAL219      0.2260
     77  O         54.2250   51.6940   74.2920 O.2   219  VAL219     -0.2867
     78  CB        52.8210   48.6820   74.1370 C.3   219  VAL219      0.0252
     79  CG1       53.7350   48.7400   75.3910 C.3   219  VAL219      0.0019
     80  CG2       51.5100   48.1200   74.5030 C.3   219  VAL219      0.0019
     81  N         54.8650   53.8560   75.5120 N.3   223  LYS223     -0.1245
     82  CA        55.9800   53.8750   76.4610 C.3   223  LYS223      0.1561
     83  C         56.8450   55.1180   76.3010 C.2   223  LYS223      0.2260
     84  O         57.2220   55.7570   77.2880 O.2   223  LYS223     -0.2867
     85  CB        56.8720   52.6400   76.3540 C.3   223  LYS223      0.0271
     86  CG        58.1770   52.8050   77.1570 C.3   223  LYS223      0.0035
     87  CD        59.2700   51.7650   76.8630 C.3   223  LYS223      0.0206
     88  CE        60.7260   52.3710   76.8630 C.3   223  LYS223      0.1093
     89  NZ        60.9080   53.7270   76.1890 N.3   223  LYS223     -0.1314
@<TRIPOS>BOND
     1    64    63    1
     2    64    65    2
     3    62    63    1
     4    66    63    1
     5    66    67    1
     6    69    67   ar
     7    69    71   ar
     8    67    68   ar
     9    71    72   ar
    10    47    45    1
    11    74    75    1
    12    72    70   ar
    13    72    73    1
    14    68    70   ar
    15    45    44    2
    16    45    46    1
    17    44    43    1
    18    76    75    1
    19    76    77    2
    20    75    78    1
    21    43    42    1
    22    78    80    1
    23    78    79    1
    24    42    41    1
    25    81    82    1
    26    41    38    1
    27    89    88    1
    28    83    82    1
    29    83    84    2
    30    85    82    1
    31    85    86    1
    32    88    87    1
    33    87    86    1
    34    38    37    1
    35    38    39    1
    36    53    52    1
    37    39    48   am
    38    39    40    2
    39    21    22   ar
    40    21    19   ar
    41    22    20   ar
    42    48    49    1
    43    20    18   ar
    44    19    16   ar
    45    18    16   ar
    46    18    17   ar
    47    16    14   ar
    48    17    15   ar
    49    14    13    1
    50    14    15   ar
    51    13    10    1
    52    49    52    1
    53    49    50    1
    54    12    11    2
    55    10    11    1
    56    10     9    1
    57    50    54   am
    58    50    51    2
    59    54    55    1
    60     9     3   am
    61    31    29   am
    62     4     3    2
    63     3     2    1
    64    58    59    1
    65    58    56   am
    66     5     2    1
    67     5     6    1
    68    59    60    1
    69     7     6    1
    70    60    61    2
    71    55    56    1
    72    29    30    2
    73    29    28    1
    74     2     1    1
    75    56    57    2
    76     6     8    1
    77    28    27    1
    78    27    24    1
    79    26    25    2
    80    24    25    1
    81    24    23    1
    82    25    32   am
    83    32    33    1
    84    33    36    1
    85    33    34    1
    86    35    34    2
