@<TRIPOS>MOLECULE
tmp/1oyoA00.pdb
 100 93 0 0 0
SMALL
GASTEIGER

@<TRIPOS>ATOM
      1  N         45.7190   54.9580   36.9160 N.3    69  HIS69      -0.1241
      2  CA        46.5500   53.8740   36.3950 C.3    69  HIS69       0.1621
      3  C         46.0800   53.3900   35.0190 C.2    69  HIS69       0.2264
      4  O         46.8720   53.2980   34.0830 O.2    69  HIS69      -0.2867
      5  CB        46.5590   52.7200   37.4090 C.3    69  HIS69       0.0745
      6  CG        47.4760   51.5910   37.0510 C.ar   69  HIS69       0.0817
      7  ND1       47.0480   50.4750   36.3640 N.ar   69  HIS69      -0.2268
      8  CD2       48.7850   51.3810   37.3310 C.ar   69  HIS69       0.1154
      9  CE1       48.0520   49.6240   36.2420 C.ar   69  HIS69       0.1986
     10  NE2       49.1170   50.1490   36.8200 N.ar   69  HIS69      -0.2212
     11  N         39.3620   46.8950   38.2100 N.3    96  LEU96      -0.1245
     12  CA        40.0410   47.3480   39.4210 C.3    96  LEU96       0.1561
     13  C         39.3220   48.5750   39.9560 C.2    96  LEU96       0.2260
     14  O         38.8240   49.3890   39.1830 O.2    96  LEU96      -0.2867
     15  CB        41.5030   47.6910   39.1320 C.3    96  LEU96       0.0270
     16  CG        42.3860   46.5640   38.5900 C.3    96  LEU96       0.0019
     17  CD1       43.7950   47.0860   38.4040 C.3    96  LEU96       0.0001
     18  CD2       42.3780   45.3780   39.5410 C.3    96  LEU96       0.0001
     19  N         42.9530   50.9250   42.9490 N.3   100  GLY100     -0.1210
     20  CA        43.7950   50.0800   42.1240 C.3   100  GLY100      0.1956
     21  C         43.7590   48.6140   42.5030 C.2   100  GLY100      0.2613
     22  O         44.6510   47.8590   42.1240 O.2   100  GLY100     -0.2717
     23  N         42.7450   48.1990   43.2530 N.am  101  SER101     -0.1938
     24  CA        42.6490   46.8000   43.6500 C.3   101  SER101      0.2055
     25  C         41.3670   46.1410   43.1640 C.2   101  SER101      0.2643
     26  O         40.3700   46.8090   42.8950 O.2   101  SER101     -0.2714
     27  CB        42.7570   46.6630   45.1730 C.3   101  SER101      0.2130
     28  OG        41.7440   47.3980   45.8360 O.3   101  SER101     -0.2179
     29  N         41.4110   44.8180   43.0470 N.am  102  GLY102     -0.1954
     30  CA        40.2570   44.0640   42.5980 C.3   102  GLY102      0.1869
     31  C         40.4180   42.6160   43.0070 C.2   102  GLY102      0.2309
     32  O         41.5330   42.1730   43.2790 O.2   102  GLY102     -0.2863
     33  N         40.1920   38.4770   42.3430 N.3   104  TYR104     -0.1241
     34  CA        40.4270   37.5640   41.2380 C.3   104  TYR104      0.1605
     35  C         39.1890   37.1740   40.4520 C.2   104  TYR104      0.2264
     36  O         39.2410   37.0590   39.2280 O.2   104  TYR104     -0.2867
     37  CB        41.1350   36.3090   41.7470 C.3   104  TYR104      0.0534
     38  CG        42.6310   36.4790   41.8300 C.ar  104  TYR104     -0.0201
     39  CD1       43.2600   37.5290   41.1610 C.ar  104  TYR104     -0.0009
     40  CD2       43.4280   35.5510   42.5000 C.ar  104  TYR104     -0.0009
     41  CE1       44.6390   37.6510   41.1450 C.ar  104  TYR104      0.0417
     42  CE2       44.8210   35.6640   42.4910 C.ar  104  TYR104      0.0417
     43  CZ        45.4160   36.7150   41.8070 C.ar  104  TYR104      0.1957
     44  OH        46.7840   36.8280   41.7550 O.3   104  TYR104     -0.2866
     45  N         38.3710   39.9350   38.0820 N.3   107  ILE107     -0.1245
     46  CA        39.3860   40.0680   37.0400 C.3   107  ILE107      0.1561
     47  C         39.1290   38.9590   36.0060 C.2   107  ILE107      0.2260
     48  O         39.1990   39.1910   34.8000 O.2   107  ILE107     -0.2867
     49  CB        40.8130   39.9510   37.6300 C.3   107  ILE107      0.0252
     50  CG1       41.1670   41.2590   38.3430 C.3   107  ILE107      0.0019
     51  CG2       41.8250   39.6570   36.5220 C.3   107  ILE107      0.0019
     52  CD1       42.1440   41.1140   39.4950 C.3   107  ILE107      0.0001
     53  N         47.8390   45.1300   32.8420 N.3   132  SER132     -0.1202
     54  CA        48.8860   45.6190   33.7230 C.3   132  SER132      0.2020
     55  C         48.4110   45.3760   35.1410 C.2   132  SER132      0.2619
     56  O         48.1350   46.3080   35.9020 O.2   132  SER132     -0.2717
     57  CB        49.1390   47.1070   33.4860 C.3   132  SER132      0.2103
     58  OG        49.6440   47.3170   32.1810 O.3   132  SER132     -0.2182
     59  N         48.2780   44.0970   35.4680 N.am  133  LEU133     -0.1965
     60  CA        47.8470   43.6970   36.8170 C.3   133  LEU133      0.1728
     61  C         48.3420   42.2920   37.1310 C.2   133  LEU133      0.2616
     62  O         48.8680   41.6050   36.2520 O.2   133  LEU133     -0.2715
     63  CB        46.3140   43.8760   36.9960 C.3   133  LEU133      0.0311
     64  CG        45.3090   42.8840   36.4030 C.3   133  LEU133      0.0022
     65  CD1       44.4050   43.5840   35.4020 C.3   133  LEU133      0.0001
     66  CD2       46.0270   41.7120   35.7410 C.3   133  LEU133      0.0001
     67  N         48.1560   41.8840   38.3840 N.am  134  GLY134     -0.1955
     68  CA        48.5890   40.5720   38.8250 C.3   134  GLY134      0.1869
     69  C         48.7220   40.4300   40.3330 C.2   134  GLY134      0.2309
     70  O         48.6820   41.4050   41.0820 O.2   134  GLY134     -0.2863
     71  N         51.6740   42.0240   32.6410 N.3   158  ALA158     -0.1245
     72  CA        52.8500   42.5110   33.3590 C.3   158  ALA158      0.1562
     73  C         53.5260   41.3680   34.1050 C.2   158  ALA158      0.2260
     74  O         52.8550   40.5000   34.6640 O.2   158  ALA158     -0.2867
     75  CB        52.4490   43.6100   34.3440 C.3   158  ALA158      0.0290
     76  N         55.2820   41.7010   36.7940 N.3   160  GLY160     -0.1210
     77  CA        55.1710   41.9440   38.2250 C.3   160  GLY160      0.1956
     78  C         56.3410   42.7810   38.7140 C.2   160  GLY160      0.2611
     79  O         57.4020   42.7750   38.0940 O.2   160  GLY160     -0.2717
     80  N         56.1690   43.4840   39.8300 N.am  161  ASN161     -0.1974
     81  CA        57.2200   44.3500   40.3540 C.3   161  ASN161      0.1688
     82  C         57.8260   43.8990   41.6790 C.2   161  ASN161      0.2292
     83  O         58.0390   44.7110   42.5580 O.2   161  ASN161     -0.2864
     84  CB        56.6640   45.7650   40.5430 C.3   161  ASN161      0.1181
     85  CG        56.0250   46.3240   39.2900 C.2   161  ASN161      0.2629
     86  OD1       56.5010   46.0890   38.1860 O.2   161  ASN161     -0.2716
     87  ND2       54.9500   47.0850   39.4580 N.am  161  ASN161     -0.0877
     88  N         56.2040   47.3630   35.6360 N.3   223  THR223     -0.1203
     89  CA        56.0960   46.4360   34.5140 C.3   223  THR223      0.1994
     90  C         54.7110   46.7420   33.9360 C.2   223  THR223      0.2618
     91  O         54.3710   46.3390   32.8250 O.2   223  THR223     -0.2717
     92  CB        56.1910   44.9550   34.9620 C.3   223  THR223      0.1784
     93  OG1       55.2270   44.6920   35.9860 O.3   223  THR223     -0.2211
     94  CG2       57.5880   44.6510   35.4870 C.3   223  THR223      0.0376
     95  N         53.9260   47.4750   34.7220 N.am  224  SER224     -0.1951
     96  CA        52.5980   47.9230   34.3200 C.3   224  SER224      0.1924
     97  C         52.7170   48.9090   33.1530 C.2   224  SER224      0.2314
     98  O         51.7980   49.0310   32.3450 O.2   224  SER224     -0.2863
     99  CB        51.8980   48.6230   35.4870 C.3   224  SER224      0.2116
    100  OG        51.0640   47.7290   36.1980 O.3   224  SER224     -0.2180
@<TRIPOS>BOND
     1    58    57    1
     2    98    97    2
     3    71    72    1
     4    91    90    2
     5    53    54    1
     6    97    96    1
     7    72    73    1
     8    72    75    1
     9    57    54    1
    10    54    55    1
    11    90    89    1
    12    90    95   am
    13     4     3    2
    14    73    74    2
    15    96    95    1
    16    96    99    1
    17    89    92    1
    18    89    88    1
    19    48    47    2
    20    92    94    1
    21    92    93    1
    22     3     2    1
    23    55    59   am
    24    55    56    2
    25    65    64    1
    26    59    60    1
    27    99   100    1
    28    66    64    1
    29    47    46    1
    30     9     7   ar
    31     9    10   ar
    32    62    61    2
    33     7     6   ar
    34     2     1    1
    35     2     5    1
    36    64    63    1
    37    51    49    1
    38    76    77    1
    39    60    63    1
    40    60    61    1
    41    10     8   ar
    42    46    49    1
    43    46    45    1
    44     6     8   ar
    45     6     5    1
    46    61    67   am
    47    49    50    1
    48    79    78    2
    49    86    85    2
    50    11    12    1
    51    77    78    1
    52    50    52    1
    53    67    68    1
    54    17    16    1
    55    16    15    1
    56    16    18    1
    57    78    80   am
    58    68    69    1
    59    15    12    1
    60    14    13    2
    61    36    35    2
    62    85    87   am
    63    85    84    1
    64    12    13    1
    65    80    81    1
    66    69    70    2
    67    81    84    1
    68    81    82    1
    69    35    34    1
    70    41    39   ar
    71    41    43   ar
    72    39    38   ar
    73    34    37    1
    74    34    33    1
    75    82    83    2
    76    37    38    1
    77    44    43    1
    78    43    42   ar
    79    38    40   ar
    80    22    21    2
    81    20    21    1
    82    20    19    1
    83    42    40   ar
    84    21    23   am
    85    30    31    1
    86    30    29    1
    87    26    25    2
    88    31    32    2
    89    29    25   am
    90    25    24    1
    91    23    24    1
    92    24    27    1
    93    27    28    1
