@<TRIPOS>MOLECULE
tmp/1oyqA00.pdb
 175 174 0 0 0
SMALL
GASTEIGER

@<TRIPOS>ATOM
      1  N          7.4050    2.5190   24.0110 N.3    40  HIS40      -0.1241
      2  CA         6.3210    1.5480   24.0380 C.3    40  HIS40       0.1621
      3  C          6.2440    0.7030   22.7600 C.2    40  HIS40       0.2264
      4  O          5.4830   -0.2600   22.6870 O.2    40  HIS40      -0.2867
      5  CB         4.9750    2.2040   24.4040 C.3    40  HIS40       0.0745
      6  CG         4.2430    2.8370   23.2580 C.ar   40  HIS40       0.0817
      7  ND1        4.2590    4.1970   23.0240 N.ar   40  HIS40      -0.2268
      8  CD2        3.3780    2.3160   22.3560 C.ar   40  HIS40       0.1154
      9  CE1        3.4310    4.4880   22.0380 C.ar   40  HIS40       0.1986
     10  NE2        2.8840    3.3640   21.6150 N.ar   40  HIS40      -0.2212
     11  N          3.3860    2.7370   32.8810 N.3    79  ASN79      -0.1225
     12  CA         2.0840    3.0740   33.4350 C.3    79  ASN79       0.1785
     13  C          1.6980    4.5050   33.1340 C.2    79  ASN79       0.2598
     14  O          0.5340    4.7930   32.8770 O.2    79  ASN79      -0.2718
     15  CB         2.0560    2.8570   34.9490 C.3    79  ASN79       0.1169
     16  CG         2.2120    1.3940   35.3360 C.2    79  ASN79       0.2627
     17  OD1        3.1240    1.0310   36.0890 O.2    79  ASN79      -0.2716
     18  ND2        1.3190    0.5480   34.8300 N.am   79  ASN79      -0.0877
     19  N          2.6750    5.3990   33.1750 N.am   80  THR80      -0.1939
     20  CA         2.4290    6.8140   32.9240 C.3    80  THR80       0.2028
     21  C          2.8340    7.2490   31.5220 C.2    80  THR80       0.2642
     22  O          2.4450    8.3310   31.0670 O.2    80  THR80      -0.2714
     23  CB         3.2300    7.6870   33.8990 C.3    80  THR80       0.1808
     24  OG1        4.6320    7.4840   33.6830 O.3    80  THR80      -0.2208
     25  CG2        2.8900    7.3250   35.3330 C.3    80  THR80       0.0379
     26  N          3.6350    6.4100   30.8680 N.am   81  LEU81      -0.1977
     27  CA         4.1800    6.6730   29.5450 C.3    81  LEU81       0.1596
     28  C          5.1580    7.8440   29.5930 C.2    81  LEU81       0.2287
     29  O          5.4760    8.4540   28.5720 O.2    81  LEU81      -0.2864
     30  CB         3.0870    6.8720   28.4750 C.3    81  LEU81       0.0297
     31  CG         2.3970    5.6000   27.9540 C.3    81  LEU81       0.0022
     32  CD1        1.8520    5.8480   26.5660 C.3    81  LEU81       0.0001
     33  CD2        3.3850    4.4530   27.8620 C.3    81  LEU81       0.0001
     34  N         -6.2800   16.4360   29.9130 N.3   152  TYR152     -0.1241
     35  CA        -5.8420   15.2160   30.5950 C.3   152  TYR152      0.1605
     36  C         -5.3290   15.5670   31.9860 C.2   152  TYR152      0.2264
     37  O         -4.1180   15.5030   32.2560 O.2   152  TYR152     -0.2867
     38  CB        -4.7070   14.5420   29.8090 C.3   152  TYR152      0.0534
     39  CG        -5.0830   14.0780   28.4150 C.ar  152  TYR152     -0.0201
     40  CD1       -5.8190   12.9080   28.2300 C.ar  152  TYR152     -0.0009
     41  CD2       -4.6940   14.8080   27.2790 C.ar  152  TYR152     -0.0009
     42  CE1       -6.1640   12.4660   26.9560 C.ar  152  TYR152      0.0417
     43  CE2       -5.0340   14.3710   25.9940 C.ar  152  TYR152      0.0417
     44  CZ        -5.7680   13.1980   25.8470 C.ar  152  TYR152      0.1957
     45  OH        -6.1020   12.7290   24.6010 O.3   152  TYR152     -0.2866
     46  N         -2.2560   13.7310   33.9920 N.3   155  GLN155     -0.1245
     47  CA        -1.5690   12.7350   33.1810 C.3   155  GLN155      0.1566
     48  C         -0.4650   13.3060   32.3060 C.2   155  GLN155      0.2260
     49  O          0.2730   12.5580   31.6860 O.2   155  GLN155     -0.2867
     50  CB        -2.5660   11.9950   32.3090 C.3   155  GLN155      0.0367
     51  CG        -3.6250   11.2770   33.0900 C.3   155  GLN155      0.0905
     52  CD        -4.7080   10.7360   32.1910 C.2   155  GLN155      0.2608
     53  OE1       -5.4750   11.4950   31.6000 O.2   155  GLN155     -0.2717
     54  NE2       -4.7720    9.4190   32.0670 N.am  155  GLN155     -0.0878
     55  N         -6.2490   13.6380   13.8550 N.3   171  ASP171     -0.1225
     56  CA        -5.3380   13.2170   14.9230 C.3   171  ASP171      0.1805
     57  C         -4.4640   12.0460   14.4500 C.2   171  ASP171      0.2598
     58  O         -4.6730   11.5080   13.3540 O.2   171  ASP171     -0.2718
     59  CB        -6.2310   12.7190   16.0830 C.3   171  ASP171      0.1424
     60  CG        -5.5010   12.5830   17.4240 C.2   171  ASP171      0.3668
     61  OD1       -4.3370   13.0060   17.5750 O.co2 171  ASP171     -0.2456
     62  OD2       -6.1370   12.0490   18.3540 O.co2 171  ASP171     -0.2456
     63  N         -3.4460   11.6980   15.2370 N.am  172  SER172     -0.1938
     64  CA        -2.6360   10.5240   14.9440 C.3   172  SER172      0.2055
     65  C         -3.4420    9.4210   15.6330 C.2   172  SER172      0.2643
     66  O         -4.4180    9.7130   16.3290 O.2   172  SER172     -0.2714
     67  CB        -1.2190   10.6410   15.5200 C.3   172  SER172      0.2130
     68  OG        -1.2240   11.0570   16.8760 O.3   172  SER172     -0.2179
     69  N         -3.0450    8.1660   15.4820 N.am  173  CYS173     -0.1953
     70  CA        -3.8050    7.0750   16.0850 C.3   173  CYS173      0.1843
     71  C         -2.9000    5.8580   16.2330 C.2   173  CYS173      0.2625
     72  O         -1.7080    5.9410   15.9400 O.2   173  CYS173     -0.2714
     73  CB        -5.0050    6.7550   15.1830 C.3   173  CYS173      0.0997
     74  SG        -6.3170    5.7310   15.9210 S.3   173  CYS173     -0.0797
     75  N         -3.4660    4.7410   16.6820 N.am  174  GLN174     -0.1977
     76  CA        -2.7200    3.4920   16.8640 C.3   174  GLN174      0.1601
     77  C         -2.0200    3.1420   15.5440 C.2   174  GLN174      0.2287
     78  O         -2.6230    3.2360   14.4740 O.2   174  GLN174     -0.2864
     79  CB        -3.6810    2.3610   17.2560 C.3   174  GLN174      0.0394
     80  CG        -4.5220    1.8730   16.0770 C.3   174  GLN174      0.0908
     81  CD        -5.8730    1.2770   16.4590 C.2   174  GLN174      0.2608
     82  OE1       -6.0740    0.0610   16.3770 O.2   174  GLN174     -0.2717
     83  NE2       -6.8320    2.1400   16.7980 N.am  174  GLN174     -0.0878
     84  N          2.2240    5.4990   16.3800 N.3   177  SER177     -0.1217
     85  CA         3.1500    5.5330   17.5220 C.3   177  SER177      0.1889
     86  C          4.6190    5.4160   17.1470 C.2   177  SER177      0.2288
     87  O          4.9920    4.5630   16.3400 O.2   177  SER177     -0.2866
     88  CB         2.8090    4.4020   18.4920 C.3   177  SER177      0.2089
     89  OG         1.5560    4.6310   19.0830 O.3   177  SER177     -0.2183
     90  N          5.0460   10.4240   18.3240 N.3   191  VAL191     -0.1231
     91  CA         3.6660   10.0070   18.5690 C.3   191  VAL191      0.1692
     92  C          3.6790    9.0450   19.7710 C.2   191  VAL191      0.2593
     93  O          4.3500    8.0040   19.7380 O.2   191  VAL191     -0.2718
     94  CB         3.0600    9.3130   17.3290 C.3   191  VAL191      0.0266
     95  CG1        1.6270    8.8970   17.6070 C.3   191  VAL191      0.0020
     96  CG2        3.1170   10.2510   16.1240 C.3   191  VAL191      0.0020
     97  N          2.9310    9.3880   20.8190 N.am  192  SER192     -0.1938
     98  CA         2.9370    8.5770   22.0310 C.3   192  SER192      0.2055
     99  C          1.6030    7.9400   22.4180 C.2   192  SER192      0.2643
    100  O          1.4420    6.7200   22.3230 O.2   192  SER192     -0.2714
    101  CB         3.5020    9.4220   23.1880 C.3   192  SER192      0.2130
    102  OG         3.7780    8.6530   24.3480 O.3   192  SER192     -0.2179
    103  N          0.6430    8.7520   22.8460 N.am  193  TRP193     -0.1959
    104  CA        -0.6410    8.2180   23.2740 C.3   193  TRP193      0.1771
    105  C         -1.7500    9.2290   23.1620 C.2   193  TRP193      0.2620
    106  O         -1.5420   10.3550   22.7370 O.2   193  TRP193     -0.2715
    107  CB        -0.5720    7.7170   24.7220 C.3   193  TRP193      0.0590
    108  CG        -0.2890    8.7860   25.7500 C.ar  193  TRP193      0.0006
    109  CD1        0.9300    9.3050   26.0790 C.ar  193  TRP193      0.0946
    110  CD2       -1.2480    9.4550   26.5840 C.ar  193  TRP193      0.0152
    111  NE1        0.7930   10.2550   27.0630 N.ar  193  TRP193     -0.2442
    112  CE2       -0.5340   10.3700   27.3900 C.ar  193  TRP193      0.0810
    113  CE3       -2.6370    9.3710   26.7270 C.ar  193  TRP193      0.0012
    114  CZ2       -1.1660   11.2020   28.3260 C.ar  193  TRP193      0.0191
    115  CZ3       -3.2650   10.1990   27.6570 C.ar  193  TRP193      0.0001
    116  CH2       -2.5290   11.1000   28.4410 C.ar  193  TRP193      0.0015
    117  N         -2.9400    8.8060   23.5490 N.am  194  GLY194     -0.1940
    118  CA        -4.0890    9.6770   23.5090 C.3   194  GLY194      0.2014
    119  C         -5.2550    8.8380   23.9540 C.2   194  GLY194      0.2640
    120  O         -5.1090    7.6270   24.1280 O.2   194  GLY194     -0.2714
    121  N         -6.3970    9.4700   24.1640 N.am  195  SER195     -0.1935
    122  CA        -7.5870    8.7480   24.5850 C.3   195  SER195      0.2055
    123  C         -8.4280    8.5770   23.3250 C.2   195  SER195      0.2644
    124  O         -9.1060    9.5110   22.8880 O.2   195  SER195     -0.2714
    125  CB        -8.3350    9.5570   25.6430 C.3   195  SER195      0.2130
    126  OG        -9.4140    8.8210   26.1680 O.3   195  SER195     -0.2179
    127  N         -8.3690    7.3880   22.7370 N.am  196  GLY196     -0.1939
    128  CA        -9.0840    7.1430   21.4960 C.3   196  GLY196      0.2014
    129  C         -8.3270    7.8980   20.4040 C.2   196  GLY196      0.2639
    130  O         -7.1410    8.2160   20.5770 O.2   196  GLY196     -0.2714
    131  N         -8.9910    8.1940   19.2950 N.am  197  CYS197     -0.1967
    132  CA        -8.3620    8.9410   18.2140 C.3   197  CYS197      0.1712
    133  C         -9.3310    9.9500   17.6460 C.2   197  CYS197      0.2296
    134  O        -10.4900    9.6390   17.3960 O.2   197  CYS197     -0.2864
    135  CB        -7.9110    8.0060   17.0980 C.3   197  CYS197      0.0983
    136  SG        -6.7670    6.7090   17.6470 S.3   197  CYS197     -0.0798
    137  N         -9.8900   15.6240   23.2330 N.3   202  LYS202     -0.1231
    138  CA        -8.9100   14.5860   23.5570 C.3   202  LYS202      0.1678
    139  C         -7.8350   14.5770   22.4690 C.2   202  LYS202      0.2434
    140  O         -7.7620   13.6530   21.6540 O.2   202  LYS202     -0.2733
    141  CB        -9.5760   13.2040   23.6380 C.3   202  LYS202      0.0284
    142  CG       -10.5360   13.0350   24.8010 C.3   202  LYS202      0.0035
    143  CD        -9.8170   13.2770   26.1180 C.3   202  LYS202      0.0206
    144  CE       -10.7870   13.2540   27.2910 C.3   202  LYS202      0.1093
    145  NZ       -10.1150   13.5660   28.5920 N.3   202  LYS202     -0.1314
    146  N         -6.9830   15.6120   22.4450 N.am  203  PRO203     -0.2718
    147  CA        -5.9250   15.6960   21.4390 C.3   203  PRO203      0.1535
    148  C         -4.8170   14.6690   21.6580 C.2   203  PRO203      0.2599
    149  O         -4.7720   13.9900   22.6860 O.2   203  PRO203     -0.2715
    150  CB        -5.4260   17.1300   21.6030 C.3   203  PRO203      0.0310
    151  CG        -5.5820   17.3690   23.0710 C.3   203  PRO203      0.0237
    152  CD        -6.9210   16.7490   23.3830 C.3   203  PRO203      0.0939
    153  N         -3.9330   14.5430   20.6750 N.am  204  GLY204     -0.1941
    154  CA        -2.8420   13.6000   20.7990 C.3   204  GLY204      0.2014
    155  C         -1.7820   14.1200   21.7470 C.2   204  GLY204      0.2639
    156  O         -1.5860   15.3310   21.8730 O.2   204  GLY204     -0.2714
    157  N         -1.1060   13.1970   22.4270 N.am  205  VAL205     -0.1963
    158  CA        -0.0360   13.5290   23.3640 C.3   205  VAL205      0.1727
    159  C          1.2620   13.0020   22.7760 C.2   205  VAL205      0.2616
    160  O          1.3430   11.8600   22.3060 O.2   205  VAL205     -0.2715
    161  CB        -0.2800   12.9290   24.7670 C.3   205  VAL205      0.0290
    162  CG1        0.8360   13.3770   25.7290 C.3   205  VAL205      0.0023
    163  CG2       -1.6520   13.3590   25.2850 C.3   205  VAL205      0.0023
    164  N          2.2850   13.8380   22.8300 N.am  206  TYR206     -0.1974
    165  CA         3.5660   13.5260   22.2330 C.3   206  TYR206      0.1639
    166  C          4.7480   13.7130   23.1650 C.2   206  TYR206      0.2290
    167  O          4.7440   14.5870   24.0290 O.2   206  TYR206     -0.2864
    168  CB         3.7490   14.4360   21.0090 C.3   206  TYR206      0.0560
    169  CG         2.6160   14.3050   20.0160 C.ar  206  TYR206     -0.0198
    170  CD1        1.4480   15.0570   20.1480 C.ar  206  TYR206     -0.0009
    171  CD2        2.6870   13.3770   18.9810 C.ar  206  TYR206     -0.0009
    172  CE1        0.3750   14.8780   19.2710 C.ar  206  TYR206      0.0417
    173  CE2        1.6290   13.1920   18.1060 C.ar  206  TYR206      0.0417
    174  CZ         0.4780   13.9390   18.2530 C.ar  206  TYR206      0.1957
    175  OH        -0.5610   13.7300   17.3830 O.3   206  TYR206     -0.2866
@<TRIPOS>BOND
     1    58    57    2
     2    55    56    1
     3    57    56    1
     4    57    63   am
     5    78    77    2
     6    56    59    1
     7    64    63    1
     8    64    67    1
     9    64    65    1
    10    73    74    1
    11    73    70    1
    12    69    65   am
    13    69    70    1
    14    67    68    1
    15    77    76    1
    16    65    66    2
    17    74   136    1
    18    72    71    2
    19    80    81    1
    20    80    79    1
    21    59    60    1
    22    70    71    1
    23    96    94    1
    24    71    75   am
    25    87    86    2
    26    82    81    2
    27    84    85    1
    28    81    83   am
    29    75    76    1
    30    76    79    1
    31   135   136    1
    32   135   132    1
    33    86    85    1
    34    94    95    1
    35    94    91    1
    36   175   174    1
    37   134   133    2
    38    60    61   ar
    39    60    62   ar
    40    85    88    1
    41   133   132    1
    42   173   174   ar
    43   173   171   ar
    44   132   131    1
    45   174   172   ar
    46    90    91    1
    47    88    89    1
    48    91    92    1
    49   171   169   ar
    50   172   170   ar
    51   131   129   am
    52    93    92    2
    53    92    97   am
    54   169   170   ar
    55   169   168    1
    56   129   130    2
    57   129   128    1
    58   153   154    1
    59   153   148   am
    60   154   155    1
    61    97    98    1
    62   168   165    1
    63   147   150    1
    64   147   148    1
    65   147   146    1
    66   128   127    1
    67   150   151    1
    68    10     9   ar
    69    10     8   ar
    70   140   139    2
    71   148   149    2
    72   155   156    2
    73   155   157   am
    74    98    99    1
    75    98   101    1
    76     9     7   ar
    77   165   164    1
    78   165   166    1
    79   160   159    2
    80   100    99    2
    81     8     6   ar
    82    99   103   am
    83   157   158    1
    84   146   139   am
    85   146   152    1
    86   139   138    1
    87     4     3    2
    88   127   123   am
    89   106   105    2
    90     3     2    1
    91   159   164   am
    92   159   158    1
    93   103   104    1
    94   124   123    2
    95     7     6   ar
    96   151   152    1
    97   105   104    1
    98   105   117   am
    99   166   167    2
   100   101   102    1
   101   137   138    1
   102     6     5    1
   103   104   107    1
   104   123   122    1
   105   158   161    1
   106   118   117    1
   107   118   119    1
   108   138   141    1
   109   141   142    1
   110   119   120    2
   111   119   121   am
   112     1     2    1
   113     2     5    1
   114   121   122    1
   115   122   125    1
   116    45    44    1
   117   107   108    1
   118   161   163    1
   119   161   162    1
   120   142   143    1
   121   125   126    1
   122   108   109   ar
   123   108   110   ar
   124    44    43   ar
   125    44    42   ar
   126    43    41   ar
   127   109   111   ar
   128   143   144    1
   129    32    31    1
   130   110   113   ar
   131   110   112   ar
   132   113   115   ar
   133    42    40   ar
   134   111   112   ar
   135    41    39   ar
   136   144   145    1
   137   112   114   ar
   138   115   116   ar
   139    33    31    1
   140    31    30    1
   141    40    39   ar
   142   114   116   ar
   143    39    38    1
   144    30    27    1
   145    29    28    2
   146    27    28    1
   147    27    26    1
   148    38    35    1
   149    34    35    1
   150    35    36    1
   151    26    21   am
   152    22    21    2
   153    21    20    1
   154    53    52    2
   155    49    48    2
   156    36    37    2
   157    54    52   am
   158    52    51    1
   159    48    47    1
   160    50    51    1
   161    50    47    1
   162    14    13    2
   163    11    12    1
   164    20    19    1
   165    20    23    1
   166    13    19   am
   167    13    12    1
   168    47    46    1
   169    12    15    1
   170    24    23    1
   171    23    25    1
   172    18    16   am
   173    15    16    1
   174    16    17    2
