@<TRIPOS>MOLECULE
tmp/1oytB01.pdb
 225 225 0 0 0
SMALL
GASTEIGER

@<TRIPOS>ATOM
      1  N         14.8070   -5.9550   11.6660 N.3    28  CYS28      -0.1235
      2  CA        14.6810   -5.5260   13.0530 C.3    28  CYS28       0.1677
      3  C         13.9040   -4.2290   13.0840 C.2    28  CYS28       0.2270
      4  O         13.5930   -3.6470   12.0450 O.2    28  CYS28      -0.2867
      5  CB        16.0760   -5.1830   13.6020 C.3    28  CYS28       0.0956
      6  SG        16.9070   -6.4800   14.5720 S.3    28  CYS28      -0.0801
      7  N         22.6830   -6.1770   18.5170 N.3    43  HIS43      -0.1241
      8  CA        22.4930   -7.5410   18.0200 C.3    43  HIS43       0.1621
      9  C         21.7660   -7.5970   16.6810 C.2    43  HIS43       0.2264
     10  O         21.7850   -8.6240   16.0060 O.2    43  HIS43      -0.2867
     11  CB        21.7920   -8.4470   19.0400 C.3    43  HIS43       0.0745
     12  CG        20.3070   -8.2840   19.0890 C.ar   43  HIS43       0.0817
     13  ND1       19.6720   -7.5340   20.0580 N.ar   43  HIS43      -0.2268
     14  CD2       19.3310   -8.7530   18.2710 C.ar   43  HIS43       0.1154
     15  CE1       18.3690   -7.5440   19.8270 C.ar   43  HIS43       0.1986
     16  NE2       18.1360   -8.2770   18.7500 N.ar   43  HIS43      -0.2212
     17  N         26.1210  -10.1800   15.4390 N.3    47  TYR47      -0.1241
     18  CA        25.9040  -11.2730   16.3760 C.3    47  TYR47       0.1605
     19  C         26.6370  -12.4870   15.8100 C.2    47  TYR47       0.2264
     20  O         26.0510  -13.3370   15.1500 O.2    47  TYR47      -0.2867
     21  CB        24.4210  -11.5790   16.5750 C.3    47  TYR47       0.0534
     22  CG        24.2050  -12.4830   17.7550 C.ar   47  TYR47      -0.0201
     23  CD1       24.5620  -12.0750   19.0450 C.ar   47  TYR47      -0.0009
     24  CD2       23.6930  -13.7700   17.5850 C.ar   47  TYR47      -0.0009
     25  CE1       24.4170  -12.9480   20.1400 C.ar   47  TYR47       0.0417
     26  CE2       23.5470  -14.6450   18.6640 C.ar   47  TYR47       0.0417
     27  CZ        23.9180  -14.2200   19.9430 C.ar   47  TYR47       0.1957
     28  OH        23.8150  -15.0930   21.0050 O.3    47  TYR47      -0.2866
     29  N         25.6250  -16.3590   15.2460 N.3    50  TRP50      -0.1241
     30  CA        24.7500  -16.6680   14.1090 C.3    50  TRP50       0.1605
     31  C         25.2960  -16.1440   12.7880 C.2    50  TRP50       0.2264
     32  O         24.5640  -16.0550   11.7900 O.2    50  TRP50      -0.2867
     33  CB        23.3650  -16.0650   14.3480 C.3    50  TRP50       0.0550
     34  CG        22.6260  -16.6310   15.5210 C.ar   50  TRP50       0.0003
     35  CD1       23.0320  -17.6400   16.3510 C.ar   50  TRP50       0.0946
     36  CD2       21.3530  -16.2010   16.0060 C.ar   50  TRP50       0.0152
     37  NE1       22.0890  -17.8590   17.3270 N.ar   50  TRP50      -0.2442
     38  CE2       21.0480  -16.9860   17.1370 C.ar   50  TRP50       0.0810
     39  CE3       20.4360  -15.2210   15.5930 C.ar   50  TRP50       0.0012
     40  CZ2       19.8600  -16.8220   17.8700 C.ar   50  TRP50       0.0191
     41  CZ3       19.2580  -15.0570   16.3190 C.ar   50  TRP50       0.0001
     42  CH2       18.9820  -15.8540   17.4460 C.ar   50  TRP50       0.0015
     43  N         26.0730  -13.2150   11.9550 N.3    52  LYS52      -0.1245
     44  CA        25.4110  -11.9890   11.5450 C.3    52  LYS52       0.1561
     45  C         26.4080  -10.8490   11.7120 C.2    52  LYS52       0.2260
     46  O         26.9240  -10.6030   12.8060 O.2    52  LYS52      -0.2867
     47  CB        24.1760  -11.7220   12.4100 C.3    52  LYS52       0.0271
     48  CG        23.5430  -10.3630   12.1240 C.3    52  LYS52       0.0035
     49  CD        22.2520  -10.1600   12.9270 C.3    52  LYS52       0.0206
     50  CE        21.1790  -11.1520   12.4740 C.3    52  LYS52       0.1093
     51  NZ        19.9090  -11.0810   13.2530 N.3    52  LYS52      -0.1314
     52  N         28.3660   -9.4590   23.0930 N.3    92  TRP92      -0.1241
     53  CA        27.6120  -10.4640   22.3540 C.3    92  TRP92       0.1605
     54  C         27.9930  -11.8790   22.7670 C.2    92  TRP92       0.2264
     55  O         27.2750  -12.8320   22.4560 O.2    92  TRP92      -0.2867
     56  CB        27.8340  -10.3210   20.8490 C.3    92  TRP92       0.0550
     57  CG        29.2830  -10.3030   20.4210 C.ar   92  TRP92       0.0003
     58  CD1       30.0550   -9.1980   20.2050 C.ar   92  TRP92       0.0946
     59  CD2       30.1200  -11.4430   20.1380 C.ar   92  TRP92       0.0152
     60  NE1       31.3250   -9.5740   19.7940 N.ar   92  TRP92      -0.2442
     61  CE2       31.3840  -10.9440   19.7470 C.ar   92  TRP92       0.0810
     62  CE3       29.9160  -12.8300   20.1730 C.ar   92  TRP92       0.0012
     63  CZ2       32.4570  -11.7920   19.3830 C.ar   92  TRP92       0.0191
     64  CZ3       30.9820  -13.6770   19.8140 C.ar   92  TRP92       0.0001
     65  CH2       32.2330  -13.1410   19.4230 C.ar   92  TRP92       0.0015
     66  N         28.3260  -13.0550   25.8730 N.3    94  GLU94      -0.1231
     67  CA        27.6040  -13.5050   27.0270 C.3    94  GLU94       0.1699
     68  C         26.1300  -13.2010   27.1730 C.2    94  GLU94       0.2592
     69  O         25.2970  -14.0880   26.9970 O.2    94  GLU94      -0.2718
     70  CB        28.3050  -13.0190   28.3040 C.3    94  GLU94       0.0402
     71  CG        27.6520  -13.5800   29.5820 C.3    94  GLU94       0.1161
     72  CD        28.1320  -12.9310   30.8730 C.2    94  GLU94       0.3649
     73  OE1       28.7750  -11.8530   30.8240 O.co2  94  GLU94      -0.2457
     74  OE2       27.8420  -13.5020   31.9570 O.co2  94  GLU94      -0.2457
     75  N         25.8160  -11.9440   27.4730 N.am   95  ASN95      -0.1960
     76  CA        24.4310  -11.5760   27.8170 C.3    95  ASN95       0.1819
     77  C         23.8650  -10.3580   27.1020 C.2    95  ASN95       0.2621
     78  O         22.8850   -9.7770   27.5490 O.2    95  ASN95      -0.2715
     79  CB        24.4130  -11.3090   29.3160 C.3    95  ASN95       0.1195
     80  CG        25.3960  -10.2050   29.7150 C.2    95  ASN95       0.2630
     81  OD1       26.1150   -9.6490   28.8550 O.2    95  ASN95      -0.2716
     82  ND2       25.4270   -9.8630   31.0120 N.am   95  ASN95      -0.0877
     83  N         24.4900   -9.9700   26.0030 N.am   96  LEU96      -0.1977
     84  CA        24.0660   -8.7930   25.2360 C.3    96  LEU96       0.1596
     85  C         24.1370   -7.5030   26.0490 C.2    96  LEU96       0.2287
     86  O         23.3580   -6.5550   25.8170 O.2    96  LEU96      -0.2864
     87  CB        22.6470   -8.9530   24.6850 C.3    96  LEU96       0.0297
     88  CG        22.4280  -10.1430   23.7540 C.3    96  LEU96       0.0022
     89  CD1       21.0180  -10.0530   23.0980 C.3    96  LEU96       0.0001
     90  CD2       23.5050  -10.1360   22.6820 C.3    96  LEU96       0.0001
     91  N         20.4350  -16.0380   32.9310 N.3   172  ILE172     -0.1245
     92  CA        21.3600  -15.0840   32.3160 C.3   172  ILE172      0.1561
     93  C         21.7020  -13.9800   33.3230 C.2   172  ILE172      0.2260
     94  O         20.8510  -13.5430   34.1140 O.2   172  ILE172     -0.2867
     95  CB        20.7350  -14.4300   31.0170 C.3   172  ILE172      0.0252
     96  CG1       20.3850  -15.5040   29.9790 C.3   172  ILE172      0.0019
     97  CG2       21.6880  -13.3660   30.4330 C.3   172  ILE172      0.0019
     98  CD1       21.5410  -16.0290   29.1910 C.3   172  ILE172      0.0001
     99  N          4.3110   -9.1250   24.8370 N.3   192  ASP192     -0.1225
    100  CA         5.7770   -9.1510   24.7540 C.3   192  ASP192      0.1805
    101  C          6.2040   -8.8430   23.3360 C.2   192  ASP192      0.2598
    102  O          5.4090   -8.8920   22.3900 O.2   192  ASP192     -0.2718
    103  CB         6.2780  -10.5700   25.1110 C.3   192  ASP192      0.1424
    104  CG         7.7810  -10.6440   25.3660 C.2   192  ASP192      0.3668
    105  OD1        8.4700   -9.6080   25.4930 O.co2 192  ASP192     -0.2456
    106  OD2        8.2880  -11.7880   25.4730 O.co2 192  ASP192     -0.2456
    107  N          7.4800   -8.5110   23.1930 N.am  193  ALA193     -0.1966
    108  CA         8.0530   -8.3250   21.8790 C.3   193  ALA193      0.1728
    109  C          8.4260   -9.7420   21.4300 C.2   193  ALA193      0.2616
    110  O          8.4120  -10.6720   22.2510 O.2   193  ALA193     -0.2715
    111  CB         9.2930   -7.4700   21.9890 C.3   193  ALA193      0.0334
    112  N          8.7490   -9.9030   20.1470 N.am  194  CYS194     -0.1954
    113  CA         9.1460  -11.2170   19.6320 C.3   194  CYS194      0.1843
    114  C         10.0580  -11.0440   18.4330 C.2   194  CYS194      0.2625
    115  O         10.4520   -9.9160   18.0970 O.2   194  CYS194     -0.2714
    116  CB         7.8960  -11.9970   19.2650 C.3   194  CYS194      0.0997
    117  SG         8.1090  -13.8220   19.1870 S.3   194  CYS194     -0.0797
    118  N         10.4160  -12.1530   17.7800 N.am  195  GLU195     -0.1963
    119  CA        11.2840  -12.0790   16.6160 C.3   195  GLU195      0.1733
    120  C         10.8180  -11.0420   15.5910 C.2   195  GLU195      0.2616
    121  O          9.6620  -11.0680   15.1720 O.2   195  GLU195     -0.2715
    122  CB        11.3780  -13.4470   15.9130 C.3   195  GLU195      0.0429
    123  CG        12.2710  -13.3560   14.7010 C.3   195  GLU195      0.1163
    124  CD        12.8840  -14.6710   14.3130 C.2   195  GLU195      0.3649
    125  OE1       12.1310  -15.6450   14.1240 O.co2 195  GLU195     -0.2457
    126  OE2       14.1260  -14.7230   14.1930 O.co2 195  GLU195     -0.2457
    127  N         11.7050  -10.1330   15.2050 N.am  196  GLY196     -0.1955
    128  CA        11.3460   -9.1060   14.2380 C.3   196  GLY196      0.1869
    129  C         11.1580   -7.7590   14.9170 C.2   196  GLY196      0.2309
    130  O         11.2470   -6.7190   14.2710 O.2   196  GLY196     -0.2863
    131  N         12.9910   -6.8370   17.7600 N.3   198  SER198     -0.1217
    132  CA        14.1380   -6.3200   18.4840 C.3   198  SER198      0.1889
    133  C         14.7960   -5.1490   17.7770 C.2   198  SER198      0.2288
    134  O         14.6710   -4.9760   16.5560 O.2   198  SER198     -0.2866
    135  CB        15.1040   -7.4480   18.8810 C.3   198  SER198      0.2089
    136  OG        15.6350   -8.1180   17.7690 O.3   198  SER198     -0.2183
    137  N         14.3710   -2.8730   22.5180 N.3   218  VAL218     -0.1231
    138  CA        14.0230   -4.3160   22.6050 C.3   218  VAL218      0.1692
    139  C         15.3360   -5.0780   22.4320 C.2   218  VAL218      0.2593
    140  O         15.9740   -5.0020   21.3670 O.2   218  VAL218     -0.2718
    141  CB        13.0070   -4.7120   21.4850 C.3   218  VAL218      0.0266
    142  CG1       12.7070   -6.2470   21.5600 C.3   218  VAL218      0.0020
    143  CG2       11.6830   -3.9180   21.6690 C.3   218  VAL218      0.0020
    144  N         15.7630   -5.7870   23.4870 N.am  219  SER219     -0.1938
    145  CA        17.0570   -6.4680   23.4610 C.3   219  SER219      0.2055
    146  C         17.0190   -7.9860   23.4310 C.2   219  SER219      0.2643
    147  O         17.5670   -8.5890   22.5230 O.2   219  SER219     -0.2714
    148  CB        17.9150   -5.9760   24.6520 C.3   219  SER219      0.2130
    149  OG        19.2220   -6.5430   24.6340 O.3   219  SER219     -0.2179
    150  N         16.4180   -8.6070   24.4290 N.am  220  TRP220     -0.1959
    151  CA        16.3470  -10.0610   24.4370 C.3   220  TRP220      0.1771
    152  C         15.2440  -10.6220   25.3030 C.2   220  TRP220      0.2620
    153  O         14.5770   -9.9070   26.0500 O.2   220  TRP220     -0.2715
    154  CB        17.7040  -10.6680   24.8640 C.3   220  TRP220      0.0590
    155  CG        18.1520  -10.3060   26.2650 C.ar  220  TRP220      0.0006
    156  CD1       18.8270   -9.1970   26.6390 C.ar  220  TRP220      0.0946
    157  CD2       18.0060  -11.1030   27.4490 C.ar  220  TRP220      0.0152
    158  NE1       19.1300   -9.2410   27.9870 N.ar  220  TRP220     -0.2442
    159  CE2       18.6340  -10.4040   28.5040 C.ar  220  TRP220      0.0810
    160  CE3       17.4100  -12.3420   27.7200 C.ar  220  TRP220      0.0012
    161  CZ2       18.6860  -10.8940   29.8100 C.ar  220  TRP220      0.0191
    162  CZ3       17.4640  -12.8330   29.0300 C.ar  220  TRP220      0.0001
    163  CH2       18.0980  -12.1020   30.0540 C.ar  220  TRP220      0.0015
    164  N         15.0340  -11.9250   25.1530 N.am  221  GLY221     -0.1940
    165  CA        14.0370  -12.6190   25.9360 C.3   221  GLY221      0.2014
    166  C         14.2220  -14.0960   25.6740 C.2   221  GLY221      0.2639
    167  O         14.9980  -14.4760   24.8100 O.2   221  GLY221     -0.2714
    168  N         13.5280  -14.9220   26.4360 N.am  222  GLU222     -0.1963
    169  CA        13.6130  -16.3600   26.2590 C.3   222  GLU222      0.1733
    170  C         12.2100  -16.7280   25.8100 C.2   222  GLU222      0.2617
    171  O         11.2630  -16.6930   26.5880 O.2   222  GLU222     -0.2715
    172  CB        14.0430  -16.9800   27.5880 C.3   222  GLU222      0.0429
    173  CG        15.5090  -16.5940   27.8550 C.3   222  GLU222      0.1163
    174  CD        16.0400  -17.0000   29.2270 C.2   222  GLU222      0.3649
    175  OE1       15.6920  -16.3400   30.2190 O.co2 222  GLU222     -0.2457
    176  OE2       16.8200  -17.9820   29.2920 O.co2 222  GLU222     -0.2457
    177  N         12.0960  -17.0280   24.5240 N.am  223  GLY223     -0.1940
    178  CA        10.8080  -17.3230   23.9350 C.3   223  GLY223      0.2014
    179  C         10.1040  -15.9750   23.7900 C.2   223  GLY223      0.2639
    180  O         10.7680  -14.9320   23.7920 O.2   223  GLY223     -0.2714
    181  N          8.7830  -15.9930   23.6490 N.am  224  CYS224     -0.1967
    182  CA         7.9900  -14.7680   23.5560 C.3   224  CYS224      0.1712
    183  C          6.6830  -14.9380   24.3340 C.2   224  CYS224      0.2296
    184  O          5.9390  -15.9120   24.1190 O.2   224  CYS224     -0.2864
    185  CB         7.6400  -14.4390   22.1040 C.3   224  CYS224      0.0983
    186  SG         9.0300  -14.2970   20.9570 S.3   224  CYS224     -0.0798
    187  N         10.2150  -12.4570   31.0730 N.3   230  TYR230     -0.1227
    188  CA        10.0250  -11.0500   30.8180 C.3   230  TYR230      0.1736
    189  C         10.9050  -10.6160   29.6880 C.2   230  TYR230      0.2596
    190  O         11.9420  -11.2190   29.4200 O.2   230  TYR230     -0.2718
    191  CB        10.4130  -10.2410   32.0540 C.3   230  TYR230      0.0548
    192  CG         9.5560  -10.6000   33.2220 C.ar  230  TYR230     -0.0200
    193  CD1        8.2990  -10.0210   33.3790 C.ar  230  TYR230     -0.0009
    194  CD2        9.9380  -11.6270   34.0850 C.ar  230  TYR230     -0.0009
    195  CE1        7.4220  -10.4710   34.3770 C.ar  230  TYR230      0.0417
    196  CE2        9.0740  -12.0900   35.0680 C.ar  230  TYR230      0.0417
    197  CZ         7.8250  -11.5180   35.2090 C.ar  230  TYR230      0.1957
    198  OH         6.9500  -12.0350   36.1630 O.3   230  TYR230     -0.2866
    199  N         10.4930   -9.5620   29.0140 N.am  231  GLY231     -0.1942
    200  CA        11.3380   -9.0650   27.9510 C.3   231  GLY231      0.2014
    201  C         12.4040   -8.1660   28.5460 C.2   231  GLY231      0.2639
    202  O         12.1290   -7.4580   29.5230 O.2   231  GLY231     -0.2714
    203  N         13.6190   -8.2290   28.0010 N.am  232  PHE232     -0.1959
    204  CA        14.7070   -7.3840   28.4770 C.3   232  PHE232      0.1771
    205  C         15.0180   -6.3080   27.4730 C.2   232  PHE232      0.2619
    206  O         14.9650   -6.5400   26.2560 O.2   232  PHE232     -0.2715
    207  CB        15.9480   -8.2070   28.8170 C.3   232  PHE232      0.0574
    208  CG        15.8110   -8.9480   30.1050 C.ar  232  PHE232     -0.0200
    209  CD1       15.0330  -10.0960   30.1850 C.ar  232  PHE232     -0.0042
    210  CD2       16.4210   -8.4550   31.2510 C.ar  232  PHE232     -0.0042
    211  CE1       14.8580  -10.7520   31.4330 C.ar  232  PHE232     -0.0003
    212  CE2       16.2620   -9.0920   32.4720 C.ar  232  PHE232     -0.0003
    213  CZ        15.4760  -10.2380   32.5560 C.ar  232  PHE232     -0.0000
    214  N         15.3370   -5.1270   28.0160 N.am  233  TYR233     -0.1974
    215  CA        15.5480   -3.9220   27.2480 C.3   233  TYR233      0.1639
    216  C         16.8270   -3.2100   27.6080 C.2   233  TYR233      0.2290
    217  O         17.2160   -3.1560   28.7680 O.2   233  TYR233     -0.2864
    218  CB        14.3710   -2.9500   27.5170 C.3   233  TYR233      0.0560
    219  CG        13.0140   -3.5080   27.1570 C.ar  233  TYR233     -0.0198
    220  CD1       12.3370   -4.3980   28.0140 C.ar  233  TYR233     -0.0009
    221  CD2       12.4550   -3.2600   25.8910 C.ar  233  TYR233     -0.0009
    222  CE1       11.1600   -5.0270   27.5970 C.ar  233  TYR233      0.0417
    223  CE2       11.2900   -3.8760   25.4770 C.ar  233  TYR233      0.0417
    224  CZ        10.6460   -4.7600   26.3220 C.ar  233  TYR233      0.1957
    225  OH         9.5130   -5.4120   25.8730 O.3   233  TYR233     -0.2866
@<TRIPOS>BOND
     1    44    45    1
     2    44    43    1
     3    44    47    1
     4     1     2    1
     5    45    46    2
     6    32    31    2
     7     4     3    2
     8    48    47    1
     9    48    49    1
    10    50    49    1
    11    50    51    1
    12    31    30    1
    13     2     3    1
    14     2     5    1
    15     5     6    1
    16    30    33    1
    17    30    29    1
    18   125   124   ar
    19   126   124   ar
    20   128   129    1
    21   128   127    1
    22   130   129    2
    23   124   123    1
    24    33    34    1
    25   123   122    1
    26    20    19    2
    27   121   120    2
    28   127   120   am
    29    17    18    1
    30    34    36   ar
    31    34    35   ar
    32   120   119    1
    33    39    36   ar
    34    39    41   ar
    35    19    18    1
    36   122   119    1
    37    36    38   ar
    38    10     9    2
    39    41    42   ar
    40    35    37   ar
    41    18    21    1
    42   134   133    2
    43    21    22    1
    44   119   118    1
    45     9     8    1
    46    38    37   ar
    47    38    40   ar
    48    42    40   ar
    49    24    22   ar
    50    24    26   ar
    51    22    23   ar
    52   131   132    1
    53   136   135    1
    54   133   132    1
    55   118   114   am
    56     8     7    1
    57     8    11    1
    58   115   114    2
    59    14    16   ar
    60    14    12   ar
    61   114   113    1
    62   132   135    1
    63    26    27   ar
    64    16    15   ar
    65    11    12    1
    66    23    25   ar
    67    12    13   ar
    68   117   116    1
    69   117   186    1
    70   116   113    1
    71    63    65   ar
    72    63    61   ar
    73    65    64   ar
    74   113   112    1
    75    61    60   ar
    76    61    59   ar
    77    60    58   ar
    78    64    62   ar
    79    15    13   ar
    80    27    25   ar
    81    27    28    1
    82    59    62   ar
    83    59    57   ar
    84   112   109   am
    85    58    57   ar
    86    57    56    1
    87    56    53    1
    88   186   185    1
    89   140   139    2
    90   109   108    1
    91   109   110    2
    92   141   142    1
    93   141   143    1
    94   141   138    1
    95   108   111    1
    96   108   107    1
    97   185   182    1
    98    53    54    1
    99    53    52    1
   100   102   101    2
   101   139   138    1
   102   139   144   am
   103    55    54    2
   104   137   138    1
   105   147   146    2
   106    90    88    1
   107    89    88    1
   108   107   101   am
   109   101   100    1
   110   146   145    1
   111   146   150   am
   112   145   144    1
   113   145   148    1
   114   182   181    1
   115   182   183    1
   116   181   179   am
   117    88    87    1
   118   179   180    2
   119   179   178    1
   120   178   177    1
   121   184   183    2
   122   150   151    1
   123   151   154    1
   124   151   152    1
   125   177   170   am
   126   149   148    1
   127    87    84    1
   128   100    99    1
   129   100   103    1
   130   167   166    2
   131   154   155    1
   132   103   104    1
   133   164   152   am
   134   164   165    1
   135    84    83    1
   136    84    85    1
   137   152   153    2
   138   104   106   ar
   139   104   105   ar
   140   223   221   ar
   141   223   224   ar
   142   166   165    1
   143   166   168   am
   144   170   169    1
   145   170   171    2
   146    86    85    2
   147   225   224    1
   148    66    67    1
   149   221   219   ar
   150    83    77   am
   151   206   205    2
   152   169   168    1
   153   169   172    1
   154   155   156   ar
   155   155   157   ar
   156   224   222   ar
   157   156   158   ar
   158    69    68    2
   159    67    68    1
   160    67    70    1
   161    77    78    2
   162    77    76    1
   163   219   218    1
   164   219   220   ar
   165    68    75   am
   166   215   218    1
   167   215   216    1
   168   215   214    1
   169   157   160   ar
   170   157   159   ar
   171   205   214   am
   172   205   204    1
   173    75    76    1
   174   172   173    1
   175   222   220   ar
   176   216   217    2
   177   160   162   ar
   178    76    79    1
   179   173   174    1
   180   200   201    1
   181   200   199    1
   182   158   159   ar
   183   203   204    1
   184   203   201   am
   185    70    71    1
   186   204   207    1
   187   159   161   ar
   188   201   202    2
   189   207   208    1
   190    81    80    2
   191   199   189   am
   192   162   163   ar
   193    98    96    1
   194   174   176   ar
   195   174   175   ar
   196    79    80    1
   197   190   189    2
   198    71    72    1
   199   189   188    1
   200    80    82   am
   201   161   163   ar
   202    96    95    1
   203   208   209   ar
   204   208   210   ar
   205   209   211   ar
   206    97    95    1
   207   188   187    1
   208   188   191    1
   209    73    72   ar
   210    72    74   ar
   211    95    92    1
   212   210   212   ar
   213   211   213   ar
   214   191   192    1
   215    92    91    1
   216    92    93    1
   217   212   213   ar
   218   192   193   ar
   219   192   194   ar
   220    93    94    2
   221   193   195   ar
   222   194   196   ar
   223   195   197   ar
   224   196   197   ar
   225   197   198    1
