@<TRIPOS>MOLECULE
tmp/1oyyA00.pdb
 184 175 0 0 0
SMALL
GASTEIGER

@<TRIPOS>ATOM
      1  N         17.3600  -20.8890    4.7180 N.3    17  LEU17      -0.1245
      2  CA        16.7890  -20.8560    6.0400 C.3    17  LEU17       0.1561
      3  C         17.3310  -21.9340    6.9880 C.2    17  LEU17       0.2260
      4  O         17.7450  -21.6690    8.1120 O.2    17  LEU17      -0.2867
      5  CB        15.2640  -21.0560    5.9650 C.3    17  LEU17       0.0270
      6  CG        14.4430  -20.8300    7.2440 C.3    17  LEU17       0.0019
      7  CD1       14.3890  -19.3550    7.6420 C.3    17  LEU17       0.0001
      8  CD2       13.0490  -21.4150    7.0950 C.3    17  LEU17       0.0001
      9  N         20.8280  -20.4630    8.0080 N.3    21  PHE21      -0.1241
     10  CA        20.5560  -19.9360    9.3440 C.3    21  PHE21       0.1605
     11  C         20.1420  -21.0070   10.3420 C.2    21  PHE21       0.2264
     12  O         19.6530  -20.7340   11.4490 O.2    21  PHE21      -0.2867
     13  CB        19.5560  -18.7700    9.2870 C.3    21  PHE21       0.0534
     14  CG        20.0540  -17.6090    8.4660 C.ar   21  PHE21      -0.0203
     15  CD1       20.7440  -16.5680    9.0600 C.ar   21  PHE21      -0.0042
     16  CD2       19.8420  -17.5740    7.0970 C.ar   21  PHE21      -0.0042
     17  CE1       21.2270  -15.5080    8.3070 C.ar   21  PHE21      -0.0003
     18  CE2       20.3240  -16.5350    6.3390 C.ar   21  PHE21      -0.0003
     19  CZ        21.0170  -15.4930    6.9370 C.ar   21  PHE21      -0.0000
     20  N         17.5020  -22.6820   11.0170 N.3    23  TYR23      -0.1227
     21  CA        16.1180  -22.7690   11.4760 C.3    23  TYR23       0.1736
     22  C         15.4230  -23.8740   10.6990 C.2    23  TYR23       0.2595
     23  O         16.0010  -24.3890    9.7360 O.2    23  TYR23      -0.2718
     24  CB        15.4540  -21.3970   11.3880 C.3    23  TYR23       0.0548
     25  CG        16.1910  -20.3340   12.1810 C.ar   23  TYR23      -0.0200
     26  CD1       16.5100  -20.5480   13.5160 C.ar   23  TYR23      -0.0009
     27  CD2       16.5440  -19.1230   11.6050 C.ar   23  TYR23      -0.0009
     28  CE1       17.1640  -19.5870   14.2570 C.ar   23  TYR23       0.0417
     29  CE2       17.2040  -18.1600   12.3440 C.ar   23  TYR23       0.0417
     30  CZ        17.5120  -18.3950   13.6650 C.ar   23  TYR23       0.1957
     31  OH        18.1720  -17.4380   14.4010 O.3    23  TYR23      -0.2866
     32  N         14.2540  -24.3190   11.1470 N.am   24  GLN24      -0.1965
     33  CA        13.5470  -25.4130   10.4980 C.3    24  GLN24       0.1733
     34  C         12.4220  -24.9510    9.5780 C.2    24  GLN24       0.2616
     35  O         12.2810  -25.3810    8.4340 O.2    24  GLN24      -0.2715
     36  CB        12.9850  -26.3960   11.5420 C.3    24  GLN24       0.0408
     37  CG        13.0790  -27.8370   11.0580 C.3    24  GLN24       0.0908
     38  CD        11.9030  -28.7200   11.3800 C.2    24  GLN24       0.2608
     39  OE1       11.0820  -28.4360   12.2480 O.2    24  GLN24      -0.2717
     40  NE2       11.7850  -29.8400   10.6740 N.am   24  GLN24      -0.0878
     41  N         11.5920  -24.0400   10.0760 N.am   25  GLN25      -0.1963
     42  CA        10.4770  -23.4850    9.3370 C.3    25  GLN25       0.1733
     43  C         10.3970  -21.9650    9.4300 C.2    25  GLN25       0.2616
     44  O         10.8540  -21.3300   10.3810 O.2    25  GLN25      -0.2715
     45  CB         9.1810  -24.0930    9.8990 C.3    25  GLN25       0.0408
     46  CG         7.9470  -23.7800    9.0660 C.3    25  GLN25       0.0908
     47  CD         6.7070  -23.5180    9.8920 C.2    25  GLN25       0.2608
     48  OE1        6.7720  -23.0560   11.0360 O.2    25  GLN25      -0.2717
     49  NE2        5.5330  -23.8010    9.3360 N.am   25  GLN25      -0.0878
     50  N          9.7720  -21.3450    8.4360 N.am   26  PHE26      -0.1960
     51  CA         9.4780  -19.9370    8.3820 C.3    26  PHE26       0.1771
     52  C          8.4390  -19.4300    9.3740 C.2    26  PHE26       0.2619
     53  O          7.4030  -20.0690    9.5830 O.2    26  PHE26      -0.2715
     54  CB         8.9030  -19.5890    6.9860 C.3    26  PHE26       0.0574
     55  CG        10.0100  -19.3970    5.9930 C.ar   26  PHE26      -0.0200
     56  CD1       11.0660  -18.5480    6.2870 C.ar   26  PHE26      -0.0042
     57  CD2       10.0040  -20.0410    4.7700 C.ar   26  PHE26      -0.0042
     58  CE1       12.1010  -18.3400    5.4140 C.ar   26  PHE26      -0.0003
     59  CE2       11.0430  -19.8260    3.8910 C.ar   26  PHE26      -0.0003
     60  CZ        12.0930  -18.9880    4.2090 C.ar   26  PHE26      -0.0000
     61  N          8.6810  -18.2260    9.8880 N.am   27  ARG27      -0.1977
     62  CA         7.6700  -17.6290   10.7650 C.3    27  ARG27       0.1597
     63  C          6.6890  -16.8260    9.9090 C.2    27  ARG27       0.2287
     64  O          7.0440  -15.9780    9.0900 O.2    27  ARG27      -0.2864
     65  CB         8.2730  -16.7930   11.8860 C.3    27  ARG27       0.0334
     66  CG         9.0670  -17.6010   12.9050 C.3    27  ARG27       0.0492
     67  CD         9.5910  -16.6910   14.0020 C.3    27  ARG27       0.2205
     68  NE        10.5590  -17.3570   14.8600 N.pl3  27  ARG27      -0.0865
     69  CZ        11.5320  -16.7010   15.4860 C.cat  27  ARG27       0.5346
     70  NH1       11.6620  -15.3870   15.3370 N.pl3  27  ARG27       0.1354
     71  NH2       12.3900  -17.3660   16.2440 N.pl3  27  ARG27       0.1354
     72  N          7.2030  -14.2520    6.9530 N.3    30  GLN30      -0.1245
     73  CA         8.5080  -14.4970    6.4140 C.3    30  GLN30       0.1566
     74  C          8.6200  -15.0590    5.0060 C.2    30  GLN30       0.2260
     75  O          9.4480  -14.5070    4.2500 O.2    30  GLN30      -0.2867
     76  CB         9.3400  -15.3730    7.3620 C.3    30  GLN30       0.0367
     77  CG         9.6810  -14.6720    8.6880 C.3    30  GLN30       0.0905
     78  CD        10.7740  -15.4670    9.3840 C.2    30  GLN30       0.2608
     79  OE1       10.6670  -16.6940    9.4440 O.2    30  GLN30      -0.2717
     80  NE2       11.8110  -14.7850    9.8160 N.am   30  GLN30      -0.0878
     81  N          7.4990   -7.4390   17.8010 N.3    49  THR49      -0.1203
     82  CA         8.7080   -7.5010   18.5920 C.3    49  THR49       0.1994
     83  C          9.4960   -8.7930   18.5220 C.2    49  THR49       0.2618
     84  O          9.1830   -9.8250   19.1020 O.2    49  THR49      -0.2717
     85  CB         8.4010   -7.1910   20.0810 C.3    49  THR49       0.1784
     86  OG1        7.0830   -7.6410   20.3850 O.3    49  THR49      -0.2211
     87  CG2        8.5830   -5.6780   20.1950 C.3    49  THR49       0.0376
     88  N         10.6160   -8.7050   17.8120 N.am   50  GLY50      -0.1942
     89  CA        11.5670   -9.7950   17.6890 C.3    50  GLY50       0.2014
     90  C         10.9890  -10.9450   16.8620 C.2    50  GLY50       0.2639
     91  O         11.2570  -12.1460   17.0300 O.2    50  GLY50      -0.2714
     92  N         10.2100  -10.5250   15.8620 N.am   51  GLY51      -0.1939
     93  CA         9.4100  -11.4440   15.0770 C.3    51  GLY51       0.2014
     94  C         10.1860  -12.1640   13.9840 C.2    51  GLY51       0.2639
     95  O          9.7750  -13.1360   13.3470 O.2    51  GLY51      -0.2714
     96  N         11.3930  -11.6970   13.6950 N.am   52  GLY52      -0.1939
     97  CA        12.2860  -12.2850   12.7120 C.3    52  GLY52       0.2014
     98  C         12.3850  -11.3830   11.4900 C.2    52  GLY52       0.2639
     99  O         12.1240  -11.8130   10.3630 O.2    52  GLY52      -0.2714
    100  N         12.7500  -10.1110   11.6730 N.am   53  LYS53      -0.1963
    101  CA        12.7340   -9.2320   10.5060 C.3    53  LYS53       0.1728
    102  C         14.0070   -9.2300    9.6900 C.2    53  LYS53       0.2617
    103  O         13.9170   -9.0220    8.4770 O.2    53  LYS53      -0.2715
    104  CB        12.3220   -7.8040   10.8630 C.3    53  LYS53       0.0311
    105  CG        10.8310   -7.5670   10.7490 C.3    53  LYS53       0.0038
    106  CD        10.3420   -6.2880   11.4070 C.3    53  LYS53       0.0206
    107  CE        10.9410   -5.9790   12.7660 C.3    53  LYS53       0.1093
    108  NZ        10.3880   -6.7750   13.9020 N.3    53  LYS53      -0.1314
    109  N         15.1920   -9.4390   10.2160 N.am   54  SER54      -0.1936
    110  CA        16.4180   -9.3630    9.4280 C.3    54  SER54       0.2055
    111  C         16.5330  -10.4190    8.3350 C.2    54  SER54       0.2642
    112  O         17.0820  -10.1910    7.2350 O.2    54  SER54      -0.2714
    113  CB        17.6390   -9.4110   10.3690 C.3    54  SER54       0.2130
    114  OG        17.2150   -9.1040   11.6860 O.3    54  SER54      -0.2179
    115  N         15.9640  -11.5890    8.5920 N.am   55  LEU55      -0.1977
    116  CA        15.9780  -12.6940    7.6500 C.3    55  LEU55       0.1596
    117  C         15.2980  -12.2350    6.3680 C.2    55  LEU55       0.2287
    118  O         15.7130  -12.7120    5.3170 O.2    55  LEU55      -0.2864
    119  CB        15.2790  -13.9680    8.0690 C.3    55  LEU55       0.0297
    120  CG        15.9270  -14.9970    8.9720 C.3    55  LEU55       0.0022
    121  CD1       15.0230  -16.2150    9.1060 C.3    55  LEU55       0.0001
    122  CD2       17.3060  -15.4020    8.4670 C.3    55  LEU55       0.0001
    123  N         25.9440   -7.4950   13.6520 N.3    81  GLN81      -0.1245
    124  CA        25.2700   -8.3580   12.6960 C.3    81  GLN81       0.1566
    125  C         26.3160   -8.8060   11.6650 C.2    81  GLN81       0.2260
    126  O         26.3400   -9.9200   11.1700 O.2    81  GLN81      -0.2867
    127  CB        24.1660   -7.6550   11.9250 C.3    81  GLN81       0.0367
    128  CG        22.9190   -7.2840   12.6850 C.3    81  GLN81       0.0905
    129  CD        21.8320   -8.3380   12.6240 C.2    81  GLN81       0.2608
    130  OE1       22.0220   -9.4250   12.0710 O.2    81  GLN81      -0.2717
    131  NE2       20.6760   -8.0120   13.2020 N.am   81  GLN81      -0.0878
    132  N         14.3510   -0.1890   10.7010 N.3   147  GLU147     -0.1245
    133  CA        13.8370    0.8820   11.5640 C.3   147  GLU147      0.1567
    134  C         13.1190    1.9560   10.7460 C.2   147  GLU147      0.2260
    135  O         13.3340    3.1170   11.0960 O.2   147  GLU147     -0.2867
    136  CB        15.0160    1.5620   12.2740 C.3   147  GLU147      0.0388
    137  CG        15.3760    1.0460   13.6390 C.3   147  GLU147      0.1160
    138  CD        15.5940   -0.4470   13.6330 C.2   147  GLU147      0.3649
    139  OE1       16.5070   -0.9040   12.9190 O.co2 147  GLU147     -0.2457
    140  OE2       14.8840   -1.1940   14.3170 O.co2 147  GLU147     -0.2457
    141  N          9.1520   -2.7620   13.4830 N.3   182  ALA182     -0.1245
    142  CA         8.4360   -3.5910   14.4420 C.3   182  ALA182      0.1562
    143  C          7.4590   -2.7000   15.2050 C.2   182  ALA182      0.2260
    144  O          6.5580   -3.2230   15.8860 O.2   182  ALA182     -0.2867
    145  CB         9.3070   -4.3200   15.4460 C.3   182  ALA182      0.0290
    146  N         18.7700   -8.8040   23.3410 N.3   297  ASN297     -0.1240
    147  CA        18.2280   -9.8320   22.4590 C.3   297  ASN297      0.1653
    148  C         18.5640  -11.2240   22.9720 C.2   297  ASN297      0.2266
    149  O         19.2810  -12.0250   22.3850 O.2   297  ASN297     -0.2867
    150  CB        18.8370   -9.6190   21.0770 C.3   297  ASN297      0.1155
    151  CG        18.5730   -8.2210   20.5420 C.2   297  ASN297      0.2627
    152  OD1       19.5230   -7.4540   20.3460 O.2   297  ASN297     -0.2716
    153  ND2       17.3030   -7.9020   20.3250 N.am  297  ASN297     -0.0877
    154  N          8.1970   -1.9600   22.4940 N.3   318  GLN318     -0.1245
    155  CA         9.5060   -2.4960   22.1580 C.3   318  GLN318      0.1566
    156  C         10.2450   -2.9340   23.4090 C.2   318  GLN318      0.2260
    157  O         10.8250   -3.9930   23.3440 O.2   318  GLN318     -0.2867
    158  CB        10.4960   -1.7190   21.3280 C.3   318  GLN318      0.0367
    159  CG        10.4190   -0.2140   21.3930 C.3   318  GLN318      0.0905
    160  CD        11.2760    0.4460   20.3210 C.2   318  GLN318      0.2608
    161  OE1       12.4350    0.1070   20.0730 O.2   318  GLN318     -0.2717
    162  NE2       10.7260    1.4400   19.6300 N.am  318  GLN318     -0.0878
    163  N         11.0930   -7.2550   24.7600 N.3   322  ARG322     -0.1301
    164  CA        12.2720   -7.9950   25.0900 C.3   322  ARG322      0.1248
    165  C         12.0040   -9.2160   25.9280 C.3   322  ARG322      0.2009
    166  O         12.9690   -9.9950   25.9850 O.3   322  ARG322     -0.2188
    167  CB        13.2880   -7.0800   25.8380 C.3   322  ARG322      0.0254
    168  CG        13.6770   -6.0190   24.7860 C.3   322  ARG322      0.0485
    169  CD        14.7700   -5.1210   25.2310 C.3   322  ARG322      0.2205
    170  NE        14.6150   -3.7540   24.7480 N.pl3 322  ARG322     -0.0865
    171  CZ        14.5330   -3.3190   23.4990 C.cat 322  ARG322      0.5346
    172  NH1       14.5810   -4.1970   22.4950 N.pl3 322  ARG322      0.1354
    173  NH2       14.4140   -2.0130   23.2590 N.pl3 322  ARG322      0.1354
    174  N         11.1130  -14.0600   24.2270 N.3   325  ARG325     -0.1245
    175  CA        11.3950  -14.2430   22.8200 C.3   325  ARG325      0.1563
    176  C         11.5020  -15.7190   22.4360 C.2   325  ARG325      0.2260
    177  O         11.5360  -16.0410   21.2490 O.2   325  ARG325     -0.2867
    178  CB        12.7060  -13.5950   22.4000 C.3   325  ARG325      0.0307
    179  CG        12.7730  -12.0980   22.6040 C.3   325  ARG325      0.0489
    180  CD        12.0610  -11.3790   21.4910 C.3   325  ARG325      0.2205
    181  NE        12.3930   -9.9730   21.3910 N.pl3 325  ARG325     -0.0865
    182  CZ        13.2760   -9.3300   20.6580 C.cat 325  ARG325      0.5346
    183  NH1       14.0720   -9.9640   19.8100 N.pl3 325  ARG325      0.1354
    184  NH2       13.4000   -7.9990   20.7280 N.pl3 325  ARG325      0.1354
@<TRIPOS>BOND
     1    59    60   ar
     2    59    57   ar
     3    60    58   ar
     4    75    74    2
     5     1     2    1
     6    57    55   ar
     7    74    73    1
     8   118   117    2
     9    58    56   ar
    10     5     2    1
    11     5     6    1
    12    55    56   ar
    13    55    54    1
    14     2     3    1
    15    18    19   ar
    16    18    16   ar
    17   117   116    1
    18    73    72    1
    19    73    76    1
    20    19    17   ar
    21    54    51    1
    22     3     4    2
    23     8     6    1
    24    16    14   ar
    25   112   111    2
    26     6     7    1
    27    76    77    1
    28   116   119    1
    29   116   115    1
    30     9    10    1
    31   119   120    1
    32    17    15   ar
    33   111   115   am
    34   111   110    1
    35    51    50    1
    36    51    52    1
    37    35    34    2
    38    50    43   am
    39    14    15   ar
    40    14    13    1
    41   122   120    1
    42   103   102    2
    43    77    78    1
    44   120   121    1
    45    46    47    1
    46    46    45    1
    47    64    63    2
    48    13    10    1
    49    49    47   am
    50    42    43    1
    51    42    45    1
    52    42    41    1
    53    10    11    1
    54    52    53    2
    55    52    61   am
    56    78    79    2
    57    78    80   am
    58   110   109    1
    59   110   113    1
    60    43    44    2
    61    34    41   am
    62    34    33    1
    63   102   109   am
    64   102   101    1
    65    23    22    2
    66    61    62    1
    67    47    48    2
    68    63    62    1
    69    11    12    2
    70    99    98    2
    71   113   114    1
    72    33    32    1
    73    33    36    1
    74   101   104    1
    75   101   100    1
    76    40    38   am
    77    22    32   am
    78    22    21    1
    79   132   133    1
    80   134   135    2
    81   134   133    1
    82   105   104    1
    83   105   106    1
    84    62    65    1
    85    20    21    1
    86    37    38    1
    87    37    36    1
    88   126   125    2
    89    38    39    2
    90    24    21    1
    91    24    25    1
    92   106   107    1
    93    98   100   am
    94    98    97    1
    95   133   136    1
    96    27    25   ar
    97    27    29   ar
    98   125   124    1
    99    65    66    1
   100   127   128    1
   101   127   124    1
   102   130   129    2
   103    25    26   ar
   104   136   137    1
   105    29    30   ar
   106   129   128    1
   107   129   131   am
   108   124   123    1
   109    97    96    1
   110   107   108    1
   111    66    67    1
   112   139   138   ar
   113    95    94    2
   114   141   142    1
   115    26    28   ar
   116   138   137    1
   117   138   140   ar
   118    30    28   ar
   119    30    31    1
   120    96    94   am
   121    94    93    1
   122    67    68    1
   123   142   143    1
   124   142   145    1
   125    68    69    2
   126    93    92    1
   127   143   144    2
   128    70    69    1
   129    69    71    1
   130    92    90   am
   131    90    91    2
   132    90    89    1
   133    89    88    1
   134    81    82    1
   135    88    83   am
   136    83    82    1
   137    83    84    2
   138    82    85    1
   139   162   160   am
   140   183   182    1
   141   161   160    2
   142    85    87    1
   143    85    86    1
   144   160   159    1
   145   153   151   am
   146   152   151    2
   147   151   150    1
   148   182   184    1
   149   182   181    2
   150   150   147    1
   151   177   176    2
   152   158   159    1
   153   158   155    1
   154   181   180    1
   155   180   179    1
   156   155   154    1
   157   155   156    1
   158   149   148    2
   159   178   179    1
   160   178   175    1
   161   176   175    1
   162   147   148    1
   163   147   146    1
   164   172   171    1
   165   175   174    1
   166   173   171    1
   167   157   156    2
   168   171   170    2
   169   170   169    1
   170   163   164    1
   171   168   169    1
   172   168   167    1
   173   164   167    1
   174   164   165    1
   175   165   166    1
