@<TRIPOS>MOLECULE
tmp/1oz1A00.pdb
 145 135 0 0 0
SMALL
GASTEIGER

@<TRIPOS>ATOM
      1  N         23.9760   10.5890   41.2500 N.3    26  VAL26      -0.1245
      2  CA        24.9970   10.5910   40.1980 C.3    26  VAL26       0.1561
      3  C         25.2530   12.0190   39.6620 C.2    26  VAL26       0.2260
      4  O         26.2950   12.2860   39.0620 O.2    26  VAL26      -0.2867
      5  CB        24.6580    9.6220   39.0230 C.3    26  VAL26       0.0252
      6  CG1       24.4880    8.1660   39.5180 C.3    26  VAL26       0.0019
      7  CG2       23.4290   10.0750   38.2710 C.3    26  VAL26       0.0019
      8  N         19.0260   22.4750   37.4200 N.3    31  TYR31      -0.1241
      9  CA        17.9000   21.7710   36.7840 C.3    31  TYR31       0.1605
     10  C         17.1810   20.8090   37.7710 C.2    31  TYR31       0.2264
     11  O         16.0440   20.3900   37.5380 O.2    31  TYR31      -0.2867
     12  CB        18.4190   20.9750   35.5830 C.3    31  TYR31       0.0534
     13  CG        19.3520   19.8440   35.9990 C.ar   31  TYR31      -0.0201
     14  CD1       20.7370   20.0320   36.0530 C.ar   31  TYR31      -0.0009
     15  CD2       18.8330   18.5890   36.4010 C.ar   31  TYR31      -0.0009
     16  CE1       21.6000   18.9800   36.4670 C.ar   31  TYR31       0.0417
     17  CE2       19.6670   17.5580   36.8200 C.ar   31  TYR31       0.0417
     18  CZ        21.0470   17.7490   36.8550 C.ar   31  TYR31       0.1957
     19  OH        21.8590   16.7070   37.2650 O.3    31  TYR31      -0.2866
     20  N         19.7700   13.9150   39.6710 N.3    34  VAL34      -0.1245
     21  CA        19.6390   12.6300   39.0140 C.3    34  VAL34       0.1561
     22  C         20.1880   11.5270   39.9260 C.2    34  VAL34       0.2260
     23  O         21.2880   11.6690   40.5050 O.2    34  VAL34      -0.2867
     24  CB        20.3640   12.5720   37.6420 C.3    34  VAL34       0.0252
     25  CG1       20.1870   11.1590   36.9880 C.3    34  VAL34       0.0019
     26  CG2       19.8520   13.6670   36.6890 C.3    34  VAL34       0.0019
     27  N         18.4100    6.1620   34.7140 N.3    47  ALA47      -0.1245
     28  CA        18.5850    7.4640   35.3880 C.3    47  ALA47       0.1562
     29  C         17.2100    8.0100   35.7650 C.2    47  ALA47       0.2260
     30  O         16.3290    8.0910   34.9170 O.2    47  ALA47      -0.2867
     31  CB        19.2940    8.4530   34.4610 C.3    47  ALA47       0.0290
     32  N         15.4720   11.3740   37.0630 N.3    49  LYS49      -0.1245
     33  CA        15.6120   12.8090   37.3440 C.3    49  LYS49       0.1561
     34  C         14.4220   13.4200   38.1100 C.2    49  LYS49       0.2260
     35  O         13.2690   13.3100   37.6800 O.2    49  LYS49      -0.2867
     36  CB        15.8310   13.6020   36.0520 C.3    49  LYS49       0.0271
     37  CG        15.8920   15.1500   36.2640 C.3    49  LYS49       0.0035
     38  CD        16.4300   15.9380   35.0480 C.3    49  LYS49       0.0206
     39  CE        15.6680   15.6200   33.7590 C.3    49  LYS49       0.1093
     40  NZ        16.1170   16.5140   32.6330 N.3    49  LYS49      -0.1314
     41  N         10.3400   19.9600   27.5680 N.3    67  GLU67      -0.1245
     42  CA        11.1750   18.7710   27.7960 C.3    67  GLU67       0.1567
     43  C         10.3360   17.4860   27.7810 C.2    67  GLU67       0.2260
     44  O         10.7260   16.4790   27.1760 O.2    67  GLU67      -0.2867
     45  CB        11.9810   18.8580   29.1230 C.3    67  GLU67       0.0388
     46  CG        12.9330   17.6350   29.2510 C.3    67  GLU67       0.1160
     47  CD        13.8380   17.5700   30.4840 C.2    67  GLU67       0.3649
     48  OE1       13.6790   18.3580   31.4160 O.co2  67  GLU67      -0.2457
     49  OE2       14.7340   16.6900   30.5210 O.co2  67  GLU67      -0.2457
     50  N         10.8220   14.5440   24.9450 N.3    71  LEU71      -0.1245
     51  CA        11.2250   13.2210   25.3830 C.3    71  LEU71       0.1561
     52  C         10.1400   12.1800   25.1000 C.2    71  LEU71       0.2260
     53  O         10.4530   11.0510   24.6920 O.2    71  LEU71      -0.2867
     54  CB        11.5920   13.2200   26.8770 C.3    71  LEU71       0.0270
     55  CG        12.8530   14.0100   27.3030 C.3    71  LEU71       0.0019
     56  CD1       13.0470   13.8890   28.8020 C.3    71  LEU71       0.0001
     57  CD2       14.0870   13.4950   26.5980 C.3    71  LEU71       0.0001
     58  N         17.7970    9.4620   22.8260 N.3    80  ILE80      -0.1245
     59  CA        17.3160    9.1590   24.1770 C.3    80  ILE80       0.1561
     60  C         15.8520    8.7270   24.1430 C.2    80  ILE80       0.2260
     61  O         15.0720    9.3590   23.4620 O.2    80  ILE80      -0.2867
     62  CB        17.4930   10.3740   25.0870 C.3    80  ILE80       0.0252
     63  CG1       17.1030    9.9850   26.5220 C.3    80  ILE80       0.0019
     64  CG2       16.7400   11.6460   24.5230 C.3    80  ILE80       0.0019
     65  CD1       16.9480   11.1440   27.4860 C.3    80  ILE80       0.0001
     66  N         12.2830    8.0650   26.4680 N.3    82  LEU82      -0.1245
     67  CA        11.5890    8.1920   27.7630 C.3    82  LEU82       0.1561
     68  C         11.0240    6.8530   28.2770 C.2    82  LEU82       0.2260
     69  O         10.0360    6.3350   27.7350 O.2    82  LEU82      -0.2867
     70  CB        10.4840    9.2430   27.7220 C.3    82  LEU82       0.0270
     71  CG         9.9730    9.6790   29.0980 C.3    82  LEU82       0.0019
     72  CD1       11.1500   10.2000   29.9830 C.3    82  LEU82       0.0001
     73  CD2        8.8450   10.7260   28.9530 C.3    82  LEU82       0.0001
     74  N         11.5340   12.1630   35.7570 N.3   100  LEU100     -0.1231
     75  CA        11.6930   11.6070   34.4200 C.3   100  LEU100      0.1693
     76  C         12.6700   10.4550   34.4780 C.2   100  LEU100      0.2592
     77  O         13.6770   10.5140   35.1950 O.2   100  LEU100     -0.2718
     78  CB        12.2970   12.6730   33.5170 C.3   100  LEU100      0.0284
     79  CG        11.4280   13.9250   33.3220 C.3   100  LEU100      0.0019
     80  CD1       12.2200   15.0050   32.5450 C.3   100  LEU100      0.0001
     81  CD2       10.1840   13.5200   32.5700 C.3   100  LEU100      0.0001
     82  N         12.4190    9.4370   33.6740 N.am  101  VAL101     -0.1966
     83  CA        13.2320    8.2410   33.7310 C.3   101  VAL101      0.1727
     84  C         13.7200    7.8460   32.3540 C.2   101  VAL101      0.2617
     85  O         12.9300    7.7260   31.4500 O.2   101  VAL101     -0.2715
     86  CB        12.4580    7.0500   34.4120 C.3   101  VAL101      0.0290
     87  CG1       13.3090    5.7530   34.4320 C.3   101  VAL101      0.0023
     88  CG2       12.0350    7.4280   35.8520 C.3   101  VAL101      0.0023
     89  N         15.0240    7.5910   32.2230 N.am  102  THR102     -0.1937
     90  CA        15.5830    7.0760   30.9790 C.3   102  THR102      0.2028
     91  C         16.6560    6.0420   31.2870 C.2   102  THR102      0.2642
     92  O         16.9290    5.7940   32.4530 O.2   102  THR102     -0.2714
     93  CB        16.1810    8.2250   30.1490 C.3   102  THR102      0.1808
     94  OG1       16.5530    7.7420   28.8280 O.3   102  THR102     -0.2208
     95  CG2       17.4800    8.6660   30.7570 C.3   102  THR102      0.0379
     96  N         17.2360    5.4180   30.2510 N.am  103  HIS103     -0.1959
     97  CA        18.3570    4.4930   30.4400 C.3   103  HIS103      0.1787
     98  C         19.5280    5.2470   31.0650 C.2   103  HIS103      0.2620
     99  O         19.8160    6.4110   30.7040 O.2   103  HIS103     -0.2715
    100  CB        18.8350    3.8730   29.1220 C.3   103  HIS103      0.0785
    101  CG        17.7650    3.1950   28.3170 C.ar  103  HIS103      0.0821
    102  ND1       16.9680    3.8730   27.4170 N.ar  103  HIS103     -0.2267
    103  CD2       17.3760    1.8970   28.2580 C.ar  103  HIS103      0.1154
    104  CE1       16.1480    3.0240   26.8220 C.ar  103  HIS103      0.1986
    105  NE2       16.3690    1.8170   27.3190 N.ar  103  HIS103     -0.2212
    106  N         20.1780    4.5930   32.0240 N.am  104  LEU104     -0.1963
    107  CA        21.3340    5.1580   32.6950 C.3   104  LEU104      0.1728
    108  C         22.4540    5.1440   31.6850 C.2   104  LEU104      0.2616
    109  O         22.7960    4.0980   31.1420 O.2   104  LEU104     -0.2715
    110  CB        21.7470    4.2980   33.9020 C.3   104  LEU104      0.0311
    111  CG        22.8700    4.8160   34.7940 C.3   104  LEU104      0.0022
    112  CD1       22.5900    6.2460   35.3230 C.3   104  LEU104      0.0001
    113  CD2       23.1650    3.8340   35.9610 C.3   104  LEU104      0.0001
    114  N         23.0290    6.3000   31.4200 N.am  105  MET105     -0.1977
    115  CA        24.1320    6.2960   30.4820 C.3   105  MET105      0.1605
    116  C         25.4900    6.3070   31.2290 C.2   105  MET105      0.2287
    117  O         25.6170    6.8490   32.3370 O.2   105  MET105     -0.2864
    118  CB        24.0600    7.5560   29.5980 C.3   105  MET105      0.0413
    119  CG        24.6650    8.8230   30.2350 C.3   105  MET105      0.0598
    120  SD        26.0230    9.6330   29.3010 S.3   105  MET105     -0.1393
    121  CE        26.9480   10.4120   30.6710 C.3   105  MET105      0.0692
    122  N         21.6050   12.6740   23.4920 N.3   159  LEU159     -0.1231
    123  CA        20.8770   13.1380   24.6520 C.3   159  LEU159      0.1693
    124  C         20.7600   14.6690   24.6650 C.2   159  LEU159      0.2592
    125  O         21.4200   15.3770   23.8580 O.2   159  LEU159     -0.2718
    126  CB        21.5810   12.6810   25.9500 C.3   159  LEU159      0.0284
    127  CG        21.0860   11.2980   26.4390 C.3   159  LEU159      0.0019
    128  CD1       21.5340   10.1780   25.5040 C.3   159  LEU159      0.0001
    129  CD2       21.4580   10.9640   27.8990 C.3   159  LEU159      0.0001
    130  N         19.9600   15.1590   25.6160 N.am  160  ASP160     -0.1974
    131  CA        19.8020   16.5880   25.9180 C.3   160  ASP160      0.1709
    132  C         18.7480   17.2300   25.0080 C.2   160  ASP160      0.2293
    133  O         19.0670   17.7540   23.9410 O.2   160  ASP160     -0.2864
    134  CB        21.1140   17.3590   25.7630 C.3   160  ASP160      0.1436
    135  CG        22.0700   17.1990   26.9530 C.2   160  ASP160      0.3671
    136  OD1       21.9390   16.2880   27.8070 O.co2 160  ASP160     -0.2456
    137  OD2       23.0160   17.9980   27.0990 O.co2 160  ASP160     -0.2456
    138  N         16.3500   21.1280   27.3700 N.3   163  LEU163     -0.1245
    139  CA        17.0580   21.5300   28.5840 C.3   163  LEU163      0.1561
    140  C         17.1420   23.0650   28.6500 C.2   163  LEU163      0.2260
    141  O         16.9220   23.7500   27.6380 O.2   163  LEU163     -0.2867
    142  CB        18.4460   20.8610   28.6640 C.3   163  LEU163      0.0270
    143  CG        18.4980   19.3400   28.9690 C.3   163  LEU163      0.0019
    144  CD1       19.9200   18.9160   29.3000 C.3   163  LEU163      0.0001
    145  CD2       17.5460   18.9240   30.0950 C.3   163  LEU163      0.0001
@<TRIPOS>BOND
     1    58    59    1
     2    61    60    2
     3   122   123    1
     4   125   124    2
     5   133   132    2
     6    60    59    1
     7    59    62    1
     8    64    62    1
     9   123   124    1
    10   123   126    1
    11   124   130   am
    12    53    52    2
    13    50    51    1
    14   132   131    1
    15    62    63    1
    16    52    51    1
    17    51    54    1
    18   128   127    1
    19   130   131    1
    20   134   131    1
    21   134   135    1
    22   126   127    1
    23   127   129    1
    24    66    67    1
    25    63    65    1
    26    57    55    1
    27   104   105   ar
    28   104   102   ar
    29    54    55    1
    30   135   137   ar
    31   135   136   ar
    32    44    43    2
    33    55    56    1
    34   105   103   ar
    35   138   139    1
    36   102   101   ar
    37    41    42    1
    38   141   140    2
    39    70    67    1
    40    70    71    1
    41    69    68    2
    42    67    68    1
    43    43    42    1
    44    42    45    1
    45   103   101   ar
    46   101   100    1
    47   139   140    1
    48   139   142    1
    49   142   143    1
    50    94    93    1
    51    73    71    1
    52   143   144    1
    53   143   145    1
    54    71    72    1
    55   100    97    1
    56    45    46    1
    57    46    47    1
    58   120   119    1
    59   120   121    1
    60   118   119    1
    61   118   115    1
    62    93    95    1
    63    93    90    1
    64    96    97    1
    65    96    91   am
    66    97    98    1
    67   115   116    1
    68   115   114    1
    69    47    49   ar
    70    47    48   ar
    71    99    98    2
    72    90    91    1
    73    90    89    1
    74    98   106   am
    75   109   108    2
    76   116   117    2
    77    91    92    2
    78   114   108   am
    79    85    84    2
    80   108   107    1
    81   106   107    1
    82    89    84   am
    83    84    83    1
    84    80    79    1
    85    81    79    1
    86    40    39    1
    87   107   110    1
    88    79    78    1
    89    78    75    1
    90    82    83    1
    91    82    76   am
    92    83    86    1
    93    39    38    1
    94   110   111    1
    95    86    87    1
    96    86    88    1
    97    75    76    1
    98    75    74    1
    99    31    28    1
   100    76    77    2
   101    27    28    1
   102   111   112    1
   103   111   113    1
   104    30    29    2
   105    38    37    1
   106    28    29    1
   107    12    13    1
   108    12     9    1
   109    13    14   ar
   110    13    15   ar
   111    36    37    1
   112    36    33    1
   113    14    16   ar
   114    15    17   ar
   115    16    18   ar
   116    26    24    1
   117     9     8    1
   118     9    10    1
   119    17    18   ar
   120    18    19    1
   121    25    24    1
   122    32    33    1
   123    33    34    1
   124    11    10    2
   125    24    21    1
   126    35    34    2
   127     7     5    1
   128    21    20    1
   129    21    22    1
   130     5     6    1
   131     5     2    1
   132     4     3    2
   133     3     2    1
   134    22    23    2
   135     2     1    1
