@<TRIPOS>MOLECULE
tmp/1oz3C00.pdb
 96 94 0 0 0
SMALL
GASTEIGER

@<TRIPOS>ATOM
      1  N         -9.3500    7.1500   14.3360 N.3    42  ASP42      -0.1239
      2  CA       -10.6550    7.4930   13.8200 C.3    42  ASP42       0.1674
      3  C        -10.6700    9.0290   13.6970 C.2    42  ASP42       0.2266
      4  O        -10.5660    9.7190   14.6850 O.2    42  ASP42      -0.2867
      5  CB       -11.7220    6.9980   14.8080 C.3    42  ASP42       0.1410
      6  CG       -13.1270    7.3970   14.4330 C.2    42  ASP42       0.3668
      7  OD1      -14.0480    7.0470   15.2120 O.co2  42  ASP42      -0.2456
      8  OD2      -13.4190    8.0410   13.4100 O.co2  42  ASP42      -0.2456
      9  N        -13.0320   11.0010   13.3760 N.3    44  GLN44      -0.1231
     10  CA       -14.1080   11.5510   14.2340 C.3    44  GLN44       0.1698
     11  C        -13.9000   11.4310   15.7290 C.2    44  GLN44       0.2592
     12  O        -14.5790   12.1210   16.4970 O.2    44  GLN44      -0.2718
     13  CB       -15.4410   10.9060   13.8920 C.3    44  GLN44       0.0381
     14  CG       -16.1520   11.6130   12.7830 C.3    44  GLN44       0.0905
     15  CD       -15.8740   11.0340   11.4190 C.2    44  GLN44       0.2608
     16  OE1      -16.0140    9.8180   11.2060 O.2    44  GLN44      -0.2717
     17  NE2      -15.5120   11.9010   10.4720 N.am   44  GLN44      -0.0878
     18  N        -13.0140   10.5290   16.1420 N.am   45  HIS45      -0.1976
     19  CA       -12.6360   10.3570   17.5330 C.3    45  HIS45       0.1656
     20  C        -11.1470   10.2360   17.5880 C.2    45  HIS45       0.2291
     21  O        -10.6450    9.1390   17.7210 O.2    45  HIS45      -0.2864
     22  CB       -13.3270    9.1290   18.1080 C.3    45  HIS45       0.0771
     23  CG       -14.8040    9.3100   18.1310 C.ar   45  HIS45       0.0820
     24  ND1      -15.3900   10.2780   18.9160 N.ar   45  HIS45      -0.2267
     25  CD2      -15.7860    8.8100   17.3470 C.ar   45  HIS45       0.1154
     26  CE1      -16.6870   10.3100   18.6730 C.ar   45  HIS45       0.1986
     27  NE2      -16.9570    9.4290   17.7260 N.ar   45  HIS45      -0.2212
     28  N         -8.1460    2.1650   15.6670 N.3    49  PHE49      -0.1241
     29  CA        -8.8770    1.0320   15.1260 C.3    49  PHE49       0.1605
     30  C         -8.0360    0.2540   14.1410 C.2    49  PHE49       0.2264
     31  O         -7.0370    0.7630   13.6180 O.2    49  PHE49      -0.2867
     32  CB       -10.1130    1.4930   14.3660 C.3    49  PHE49       0.0534
     33  CG       -11.1550    2.0490   15.2230 C.ar   49  PHE49      -0.0203
     34  CD1      -11.0430    3.3460   15.7060 C.ar   49  PHE49      -0.0042
     35  CD2      -12.2990    1.2980   15.5390 C.ar   49  PHE49      -0.0042
     36  CE1      -12.0490    3.8960   16.4950 C.ar   49  PHE49      -0.0003
     37  CE2      -13.3070    1.8650   16.3570 C.ar   49  PHE49      -0.0003
     38  CZ       -13.1620    3.1460   16.8300 C.ar   49  PHE49      -0.0000
     39  N        -12.7830    0.6770    8.1520 N.3    65  PHE65      -0.1241
     40  CA       -12.7840    0.1710    9.5310 C.3    65  PHE65       0.1605
     41  C        -13.2570   -1.3180    9.5080 C.2    65  PHE65       0.2264
     42  O        -14.4210   -1.5600    9.2700 O.2    65  PHE65      -0.2867
     43  CB       -13.7360    0.9400   10.4310 C.3    65  PHE65       0.0534
     44  CG       -13.3090    2.3750   10.7580 C.ar   65  PHE65      -0.0203
     45  CD1      -13.6670    3.4180    9.9400 C.ar   65  PHE65      -0.0042
     46  CD2      -12.6010    2.6600   11.9240 C.ar   65  PHE65      -0.0042
     47  CE1      -13.2940    4.7210   10.2410 C.ar   65  PHE65      -0.0003
     48  CE2      -12.2590    3.9330   12.2370 C.ar   65  PHE65      -0.0003
     49  CZ       -12.5910    4.9770   11.4000 C.ar   65  PHE65      -0.0000
     50  N        -14.8090   -4.7690   10.0880 N.3    67  GLY67      -0.1210
     51  CA       -16.0460   -5.2050   10.7520 C.3    67  GLY67       0.1956
     52  C        -17.1890   -4.2180   10.6470 C.2    67  GLY67       0.2612
     53  O        -18.3770   -4.5620   10.7850 O.2    67  GLY67      -0.2717
     54  N        -16.8590   -2.9600   10.3930 N.am   68  TYR68      -0.1962
     55  CA       -17.8680   -1.9160   10.3060 C.3    68  TYR68       0.1771
     56  C        -18.3040   -1.5790    8.9020 C.2    68  TYR68       0.2620
     57  O        -17.8290   -2.1330    7.9400 O.2    68  TYR68      -0.2715
     58  CB       -17.3650   -0.6780   10.9940 C.3    68  TYR68       0.0574
     59  CG       -17.1500   -0.9030   12.4370 C.ar   68  TYR68      -0.0198
     60  CD1      -15.8820   -1.1300   12.9400 C.ar   68  TYR68      -0.0009
     61  CD2      -18.2280   -0.9800   13.3200 C.ar   68  TYR68      -0.0009
     62  CE1      -15.6870   -1.3550   14.2620 C.ar   68  TYR68       0.0417
     63  CE2      -18.0420   -1.2020   14.6430 C.ar   68  TYR68       0.0417
     64  CZ       -16.7650   -1.3780   15.1150 C.ar   68  TYR68       0.1957
     65  OH       -16.5810   -1.6310   16.4370 O.3    68  TYR68      -0.2866
     66  N        -19.2420   -0.6550    8.7900 N.am   69  SER69      -0.1950
     67  CA       -19.7910   -0.2960    7.4890 C.3    69  SER69       0.1924
     68  C        -18.8120    0.5280    6.6320 C.2    69  SER69       0.2314
     69  O        -18.0200    1.3280    7.1420 O.2    69  SER69      -0.2863
     70  CB       -21.1340    0.4270    7.6590 C.3    69  SER69       0.2116
     71  OG       -21.6080    0.9460    6.4320 O.3    69  SER69      -0.2180
     72  N        -19.5610    2.8950    4.8430 N.3    71  CYS71      -0.1221
     73  CA       -19.9830    4.2890    4.8670 C.3    71  CYS71       0.1808
     74  C        -19.0440    5.1920    5.7210 C.2    71  CYS71       0.2601
     75  O        -18.9760    6.4160    5.5120 O.2    71  CYS71      -0.2717
     76  CB       -21.4410    4.3600    5.3020 C.3    71  CYS71       0.0970
     77  SG       -21.6620    4.3300    7.0600 S.3    71  CYS71      -0.0800
     78  N        -18.2640    4.5660    6.6110 N.am   72  HIS72      -0.1975
     79  CA       -17.2560    5.2510    7.4320 C.3    72  HIS72       0.1656
     80  C        -15.8830    5.3620    6.8040 C.2    72  HIS72       0.2291
     81  O        -14.9850    5.9310    7.4210 O.2    72  HIS72      -0.2864
     82  CB       -17.1090    4.5630    8.7740 C.3    72  HIS72       0.0771
     83  CG       -18.3980    4.4990    9.5190 C.ar   72  HIS72       0.0820
     84  ND1      -19.0730    3.3170    9.7440 N.ar   72  HIS72      -0.2267
     85  CD2      -19.1810    5.4870   10.0040 C.ar   72  HIS72       0.1154
     86  CE1      -20.2100    3.5820   10.3680 C.ar   72  HIS72       0.1986
     87  NE2      -20.2860    4.8890   10.5650 N.ar   72  HIS72      -0.2212
     88  N        -15.3910   -4.8470   14.8210 N.3   100  LYS100     -0.1245
     89  CA       -16.7460   -5.0080   15.3220 C.3   100  LYS100      0.1561
     90  C        -17.0260   -6.4710   15.7070 C.2   100  LYS100      0.2260
     91  O        -16.8490   -7.3960   14.9010 O.2   100  LYS100     -0.2867
     92  CB       -17.7460   -4.5160   14.2960 C.3   100  LYS100      0.0271
     93  CG       -19.1550   -4.3760   14.8800 C.3   100  LYS100      0.0035
     94  CD       -20.1700   -4.1280   13.7870 C.3   100  LYS100      0.0206
     95  CE       -21.5370   -3.7970   14.3880 C.3   100  LYS100      0.1093
     96  NZ       -22.5100   -3.3630   13.3560 N.3   100  LYS100     -0.1314
@<TRIPOS>BOND
     1    72    73    1
     2    73    76    1
     3    73    74    1
     4    76    77    1
     5    75    74    2
     6    74    78   am
     7    71    70    1
     8    78    79    1
     9    68    69    2
    10    68    67    1
    11    80    81    2
    12    80    79    1
    13    79    82    1
    14    67    70    1
    15    67    66    1
    16    57    56    2
    17    39    40    1
    18    82    83    1
    19    66    56   am
    20    56    55    1
    21    42    41    2
    22    41    40    1
    23    83    84   ar
    24    83    85   ar
    25    40    43    1
    26    84    86   ar
    27    45    47   ar
    28    45    44   ar
    29    85    87   ar
    30    50    51    1
    31    47    49   ar
    32    55    54    1
    33    55    58    1
    34    86    87   ar
    35    54    52   am
    36    43    44    1
    37    17    15   am
    38    52    51    1
    39    52    53    2
    40    44    46   ar
    41    58    59    1
    42    16    15    2
    43    49    48   ar
    44    15    14    1
    45    46    48   ar
    46    59    60   ar
    47    59    61   ar
    48    14    13    1
    49    60    62   ar
    50    61    63   ar
    51    96    95    1
    52     9    10    1
    53     8     6   ar
    54    31    30    2
    55     3     2    1
    56     3     4    2
    57    94    95    1
    58    94    93    1
    59     2     1    1
    60     2     5    1
    61    13    10    1
    62    30    29    1
    63    10    11    1
    64    62    64   ar
    65    92    93    1
    66    92    89    1
    67    32    29    1
    68    32    33    1
    69     6     5    1
    70     6     7   ar
    71    63    64   ar
    72    88    89    1
    73    91    90    2
    74    64    65    1
    75    29    28    1
    76    33    35   ar
    77    33    34   ar
    78    89    90    1
    79    35    37   ar
    80    34    36   ar
    81    11    18   am
    82    11    12    2
    83    18    19    1
    84    37    38   ar
    85    36    38   ar
    86    25    27   ar
    87    25    23   ar
    88    19    20    1
    89    19    22    1
    90    20    21    2
    91    27    26   ar
    92    22    23    1
    93    23    24   ar
    94    26    24   ar
