@<TRIPOS>MOLECULE
tmp/1ozfA06.pdb
 92 84 0 0 0
SMALL
GASTEIGER

@<TRIPOS>ATOM
      1  N        137.0810    1.6670   12.6020 N.3   253  LEU253     -0.1245
      2  CA       136.1040    2.6570   12.1810 C.3   253  LEU253      0.1561
      3  C        136.3590    3.2530   10.7970 C.2   253  LEU253      0.2260
      4  O        135.4550    3.2810    9.9660 O.2   253  LEU253     -0.2867
      5  CB       136.0420    3.7730   13.2240 C.3   253  LEU253      0.0270
      6  CG       134.8590    4.7310   13.1360 C.3   253  LEU253      0.0019
      7  CD1      133.5510    3.9410   13.2740 C.3   253  LEU253      0.0001
      8  CD2      134.9830    5.7830   14.2350 C.3   253  LEU253      0.0001
      9  N        127.9060    9.6950   22.4590 N.3   385  MET385     -0.1245
     10  CA       127.6560    9.0550   21.1750 C.3   385  MET385      0.1570
     11  C        126.7600    9.9380   20.3030 C.2   385  MET385      0.2261
     12  O        125.7880   10.5380   20.7790 O.2   385  MET385     -0.2867
     13  CB       127.0060    7.6850   21.3800 C.3   385  MET385      0.0387
     14  CG       126.8010    6.8960   20.0870 C.3   385  MET385      0.0595
     15  SD       128.3260    6.7130   19.1290 S.3   385  MET385     -0.1393
     16  CE       129.2310    5.5770   20.1580 C.3   385  MET385      0.0692
     17  N        130.8200   12.3670   17.5370 N.3   389  HIS389     -0.1226
     18  CA       131.7080   11.3050   18.0030 C.3   389  HIS389      0.1752
     19  C        132.6210   10.8360   16.8630 C.2   389  HIS389      0.2595
     20  O        133.8030   10.5840   17.0700 O.2   389  HIS389     -0.2718
     21  CB       130.8800   10.1280   18.5410 C.3   389  HIS389      0.0759
     22  CG       131.6980    8.9470   18.9720 C.ar  389  HIS389      0.0818
     23  ND1      131.7110    8.4860   20.2720 N.ar  389  HIS389     -0.2268
     24  CD2      132.5080    8.1170   18.2720 C.ar  389  HIS389      0.1154
     25  CE1      132.4910    7.4230   20.3510 C.ar  389  HIS389      0.1986
     26  NE2      132.9870    7.1790   19.1520 N.ar  389  HIS389     -0.2212
     27  N        132.0690   10.7190   15.6640 N.am  390  ILE390     -0.1980
     28  CA       132.8540   10.2830   14.5130 C.3   390  ILE390      0.1595
     29  C        133.9060   11.3350   14.1680 C.2   390  ILE390      0.2287
     30  O        135.0220   11.0030   13.7770 O.2   390  ILE390     -0.2864
     31  CB       131.9660   10.0600   13.2630 C.3   390  ILE390      0.0276
     32  CG1      130.7530    9.1990   13.6210 C.3   390  ILE390      0.0022
     33  CG2      132.7690    9.3670   12.1720 C.3   390  ILE390      0.0022
     34  CD1      131.1120    7.8780   14.2600 C.3   390  ILE390      0.0001
     35  N        132.7640    2.9460   23.0670 N.3   408  ASN408     -0.1240
     36  CA       131.3550    2.7530   23.3880 C.3   408  ASN408      0.1653
     37  C        130.7170    1.7920   22.3930 C.2   408  ASN408      0.2266
     38  O        129.9190    2.2020   21.5450 O.2   408  ASN408     -0.2867
     39  CB       130.6470    4.1150   23.3260 C.3   408  ASN408      0.1155
     40  CG       129.2690    4.1050   23.9650 C.2   408  ASN408      0.2627
     41  OD1      128.7230    3.0480   24.3000 O.2   408  ASN408     -0.2716
     42  ND2      128.6940    5.2960   24.1300 N.am  408  ASN408     -0.0877
     43  N        127.1880    1.8230   21.9090 N.3   411  GLN411     -0.1245
     44  CA       126.8030    3.1150   21.3590 C.3   411  GLN411      0.1566
     45  C        125.7750    3.8020   22.2430 C.2   411  GLN411      0.2260
     46  O        124.8470    4.4350   21.7540 O.2   411  GLN411     -0.2867
     47  CB       126.2460    2.9490   19.9430 C.3   411  GLN411      0.0367
     48  CG       127.3000    2.6170   18.9110 C.3   411  GLN411      0.0905
     49  CD       126.7310    2.5130   17.5170 C.2   411  GLN411      0.2608
     50  OE1      125.9570    3.3620   17.0870 O.2   411  GLN411     -0.2717
     51  NE2      127.1200    1.4740   16.7970 N.am  411  GLN411     -0.0878
     52  N        123.2200   11.5270   14.0570 N.3   470  MET470     -0.1245
     53  CA       123.8630   10.2740   13.6910 C.3   470  MET470      0.1570
     54  C        122.8700    9.2710   13.1150 C.2   470  MET470      0.2261
     55  O        123.2280    8.4620   12.2570 O.2   470  MET470     -0.2867
     56  CB       124.6040    9.6620   14.8800 C.3   470  MET470      0.0387
     57  CG       125.6030    8.6100   14.4520 C.3   470  MET470      0.0595
     58  SD       126.5840    7.9100   15.7960 S.3   470  MET470     -0.1393
     59  CE       125.6960    6.3950   16.0970 C.3   470  MET470      0.0692
     60  N        121.6410   10.7990    9.4290 N.3   473  ILE473     -0.1231
     61  CA       122.5150   10.5840    8.2790 C.3   473  ILE473      0.1692
     62  C        122.4680    9.1400    7.7940 C.2   473  ILE473      0.2591
     63  O        122.8160    8.8460    6.6510 O.2   473  ILE473     -0.2718
     64  CB       123.9720   10.9810    8.5860 C.3   473  ILE473      0.0266
     65  CG1      124.4830   10.2310    9.8140 C.3   473  ILE473      0.0019
     66  CG2      124.0530   12.4710    8.8060 C.3   473  ILE473      0.0020
     67  CD1      125.9020   10.6040   10.1990 C.3   473  ILE473      0.0001
     68  N        122.0380    8.2380    8.6650 N.am  474  GLN474     -0.1979
     69  CA       121.9250    6.8400    8.2850 C.3   474  GLN474      0.1601
     70  C        120.6110    6.6650    7.5220 C.2   474  GLN474      0.2287
     71  O        120.5580    5.9480    6.5270 O.2   474  GLN474     -0.2864
     72  CB       121.9650    5.9460    9.5290 C.3   474  GLN474      0.0394
     73  CG       123.2760    6.0650   10.2970 C.3   474  GLN474      0.0908
     74  CD       123.3360    5.1850   11.5360 C.2   474  GLN474      0.2608
     75  OE1      122.5380    5.3360   12.4660 O.2   474  GLN474     -0.2717
     76  NE2      124.2930    4.2620   11.5570 N.am  474  GLN474     -0.0878
     77  N        131.8210   10.5550    6.5510 N.3   541  MET541     -0.1245
     78  CA       131.2790    9.2030    6.5340 C.3   541  MET541      0.1570
     79  C        131.8590    8.3830    5.3880 C.2   541  MET541      0.2261
     80  O        131.8750    7.1510    5.4370 O.2   541  MET541     -0.2867
     81  CB       129.7520    9.2430    6.4280 C.3   541  MET541      0.0387
     82  CG       129.0680   10.0720    7.5090 C.3   541  MET541      0.0595
     83  SD       129.6390    9.7110    9.1950 S.3   541  MET541     -0.1393
     84  CE       130.0510   11.3680    9.7800 C.3   541  MET541      0.0692
     85  N        134.4980    6.0100    6.4930 N.3   544  LEU544     -0.1245
     86  CA       134.1570    4.9110    7.3850 C.3   544  LEU544      0.1561
     87  C        134.2730    3.5760    6.6800 C.2   544  LEU544      0.2260
     88  O        134.2030    3.5020    5.4540 O.2   544  LEU544     -0.2867
     89  CB       132.7260    5.0630    7.8990 C.3   544  LEU544      0.0270
     90  CG       132.4050    6.2780    8.7660 C.3   544  LEU544      0.0019
     91  CD1      130.9340    6.2320    9.1690 C.3   544  LEU544      0.0001
     92  CD2      133.3040    6.2820   10.0020 C.3   544  LEU544      0.0001
@<TRIPOS>BOND
     1    79    80    2
     2    79    78    1
     3    88    87    2
     4    81    78    1
     5    81    82    1
     6    85    86    1
     7    71    70    2
     8    78    77    1
     9    63    62    2
    10    87    86    1
    11    86    89    1
    12    82    83    1
    13    70    69    1
    14    62    61    1
    15    62    68   am
    16    89    90    1
    17    61    64    1
    18    61    60    1
    19    69    68    1
    20    69    72    1
    21    64    66    1
    22    64    65    1
    23    90    91    1
    24    90    92    1
    25    83    84    1
    26    72    73    1
    27    65    67    1
    28     4     3    2
    29    73    74    1
    30     3     2    1
    31    74    76   am
    32    74    75    2
    33    33    31    1
    34     2     1    1
    35     2     5    1
    36    55    54    2
    37    54    53    1
    38     6     5    1
    39     6     7    1
    40     6     8    1
    41    31    32    1
    42    31    28    1
    43    32    34    1
    44    53    52    1
    45    53    56    1
    46    30    29    2
    47    29    28    1
    48    57    56    1
    49    57    58    1
    50    28    27    1
    51    27    19   am
    52    58    59    1
    53    51    49   am
    54    19    20    2
    55    19    18    1
    56    50    49    2
    57    49    48    1
    58    17    18    1
    59    18    21    1
    60    24    22   ar
    61    24    26   ar
    62    21    22    1
    63    48    47    1
    64    22    23   ar
    65    15    14    1
    66    15    16    1
    67    26    25   ar
    68    47    44    1
    69    14    13    1
    70    23    25   ar
    71    11    12    2
    72    11    10    1
    73    10    13    1
    74    10     9    1
    75    44    43    1
    76    44    45    1
    77    38    37    2
    78    46    45    2
    79    37    36    1
    80    35    36    1
    81    39    36    1
    82    39    40    1
    83    40    42   am
    84    40    41    2
