@<TRIPOS>MOLECULE
tmp/1ozhD01.pdb
 180 175 0 0 0
SMALL
GASTEIGER

@<TRIPOS>ATOM
      1  N          3.9380  -31.0200  -23.4170 N.3    84  THR84      -0.1218
      2  CA         4.4590  -30.7520  -24.7520 C.3    84  THR84       0.1862
      3  C          3.3520  -30.8050  -25.8080 C.2    84  THR84       0.2287
      4  O          3.3250  -29.9890  -26.7250 O.2    84  THR84      -0.2866
      5  CB         5.5620  -31.7450  -25.1330 C.3    84  THR84       0.1770
      6  OG1        6.6650  -31.5890  -24.2350 O.3    84  THR84      -0.2211
      7  CG2        6.0330  -31.4940  -26.5680 C.3    84  THR84       0.0375
      8  N          8.8370  -33.4050  -37.7090 N.3   377  MET377     -0.1230
      9  CA         9.9390  -32.4510  -37.7940 C.3   377  MET377      0.1702
     10  C         11.2760  -33.1580  -37.9960 C.2   377  MET377      0.2593
     11  O         11.5940  -34.1270  -37.3100 O.2   377  MET377     -0.2718
     12  CB        10.0000  -31.5720  -36.5440 C.3   377  MET377      0.0401
     13  CG        11.0520  -30.4760  -36.6180 C.3   377  MET377      0.0596
     14  SD        10.8560  -29.4320  -38.0880 S.3   377  MET377     -0.1393
     15  CE         9.1520  -28.8670  -37.8670 C.3   377  MET377      0.0692
     16  N         12.0500  -32.6520  -38.9520 N.am  378  GLY378     -0.1942
     17  CA        13.3450  -33.2280  -39.2770 C.3   378  GLY378      0.2014
     18  C         13.7560  -32.7270  -40.6540 C.2   378  GLY378      0.2640
     19  O         12.9940  -32.0080  -41.2940 O.2   378  GLY378     -0.2714
     20  N         14.9440  -33.0990  -41.1230 N.am  379  SER379     -0.1935
     21  CA        15.4090  -32.6300  -42.4300 C.3   379  SER379      0.2055
     22  C         14.3980  -32.8890  -43.5450 C.2   379  SER379      0.2643
     23  O         14.1940  -32.0480  -44.4140 O.2   379  SER379     -0.2714
     24  CB        16.7520  -33.2740  -42.7710 C.3   379  SER379      0.2130
     25  OG        17.7740  -32.7550  -41.9390 O.3   379  SER379     -0.2179
     26  N         13.7630  -34.0530  -43.5020 N.am  380  PHE380     -0.1973
     27  CA        12.7540  -34.4350  -44.4870 C.3   380  PHE380      0.1639
     28  C         11.6540  -33.3710  -44.5350 C.2   380  PHE380      0.2290
     29  O         10.9970  -33.1810  -45.5600 O.2   380  PHE380     -0.2864
     30  CB        12.1520  -35.7770  -44.0830 C.3   380  PHE380      0.0560
     31  CG        11.5270  -35.7550  -42.7180 C.ar  380  PHE380     -0.0200
     32  CD1       10.2090  -35.3380  -42.5510 C.ar  380  PHE380     -0.0042
     33  CD2       12.2860  -36.0510  -41.5900 C.ar  380  PHE380     -0.0042
     34  CE1        9.6540  -35.2080  -41.2720 C.ar  380  PHE380     -0.0003
     35  CE2       11.7440  -35.9240  -40.3100 C.ar  380  PHE380     -0.0003
     36  CZ        10.4240  -35.5000  -40.1530 C.ar  380  PHE380     -0.0000
     37  N          7.0740  -24.9270  -32.8290 N.3   402  GLN402     -0.1231
     38  CA         7.9010  -25.4440  -31.7420 C.3   402  GLN402      0.1698
     39  C          8.9050  -26.4780  -32.2490 C.2   402  GLN402      0.2592
     40  O          9.8330  -26.8490  -31.5340 O.2   402  GLN402     -0.2718
     41  CB         7.0180  -26.0910  -30.6700 C.3   402  GLN402      0.0381
     42  CG         6.0850  -25.1280  -29.9630 C.3   402  GLN402      0.0905
     43  CD         6.8360  -24.0570  -29.2000 C.2   402  GLN402      0.2608
     44  OE1        7.5870  -24.3540  -28.2700 O.2   402  GLN402     -0.2717
     45  NE2        6.6420  -22.8020  -29.5930 N.am  402  GLN402     -0.0878
     46  N          8.7030  -26.9450  -33.4780 N.am  403  GLN403     -0.1966
     47  CA         9.5840  -27.9440  -34.0880 C.3   403  GLN403      0.1733
     48  C          9.5690  -29.2390  -33.2810 C.2   403  GLN403      0.2617
     49  O         10.5680  -29.9440  -33.1810 O.2   403  GLN403     -0.2715
     50  CB        11.0030  -27.3940  -34.1970 C.3   403  GLN403      0.0408
     51  CG        11.0910  -26.1880  -35.1200 C.3   403  GLN403      0.0908
     52  CD        12.5100  -25.7120  -35.3320 C.2   403  GLN403      0.2608
     53  OE1       13.3670  -26.4680  -35.7840 O.2   403  GLN403     -0.2717
     54  NE2       12.7670  -24.4490  -35.0110 N.am  403  GLN403     -0.0878
     55  N          8.4020  -29.5460  -32.7300 N.am  404  THR404     -0.1937
     56  CA         8.2010  -30.7300  -31.9100 C.3   404  THR404      0.2028
     57  C          8.2340  -32.0100  -32.7270 C.2   404  THR404      0.2642
     58  O          7.3950  -32.2130  -33.5990 O.2   404  THR404     -0.2714
     59  CB         6.8420  -30.6690  -31.2040 C.3   404  THR404      0.1808
     60  OG1        6.7390  -29.4390  -30.4740 O.3   404  THR404     -0.2208
     61  CG2        6.6830  -31.8550  -30.2640 C.3   404  THR404      0.0379
     62  N          9.1900  -32.8820  -32.4380 N.am  405  MET405     -0.1976
     63  CA         9.2740  -34.1420  -33.1580 C.3   405  MET405      0.1605
     64  C          8.2460  -35.1290  -32.6050 C.2   405  MET405      0.2287
     65  O          7.8010  -35.0020  -31.4610 O.2   405  MET405     -0.2864
     66  CB        10.6900  -34.7230  -33.0420 C.3   405  MET405      0.0413
     67  CG        11.0920  -35.1490  -31.6420 C.3   405  MET405      0.0598
     68  SD        12.8660  -35.4710  -31.4690 S.3   405  MET405     -0.1393
     69  CE        12.9010  -37.0780  -32.0030 C.3   405  MET405      0.0692
     70  N         11.0900  -38.8680  -39.4290 N.3   429  GLY429     -0.1210
     71  CA        12.4480  -39.3690  -39.4900 C.3   429  GLY429      0.1956
     72  C         12.4620  -40.4980  -38.4780 C.2   429  GLY429      0.2612
     73  O         11.4190  -40.7890  -37.8870 O.2   429  GLY429     -0.2717
     74  N         13.6100  -41.1360  -38.2650 N.am  430  ASP430     -0.1959
     75  CA        13.6790  -42.2280  -37.2960 C.3   430  ASP430      0.1840
     76  C         13.6300  -41.7290  -35.8500 C.2   430  ASP430      0.2623
     77  O         13.1160  -42.4170  -34.9680 O.2   430  ASP430     -0.2715
     78  CB        14.9370  -43.0810  -37.5060 C.3   430  ASP430      0.1450
     79  CG        16.0870  -42.3060  -38.1130 C.2   430  ASP430      0.3671
     80  OD1       16.1670  -41.0680  -37.9360 O.co2 430  ASP430     -0.2456
     81  OD2       16.9300  -42.9540  -38.7680 O.co2 430  ASP430     -0.2456
     82  N         14.1750  -40.5400  -35.6130 N.am  431  GLY431     -0.1940
     83  CA        14.1540  -39.9700  -34.2780 C.3   431  GLY431      0.2014
     84  C         12.7230  -39.6660  -33.8690 C.2   431  GLY431      0.2639
     85  O         12.2660  -40.0980  -32.8090 O.2   431  GLY431     -0.2714
     86  N         12.0060  -38.9360  -34.7200 N.am  432  GLY432     -0.1954
     87  CA        10.6220  -38.5860  -34.4330 C.3   432  GLY432      0.1869
     88  C          9.7070  -39.7960  -34.3460 C.2   432  GLY432      0.2309
     89  O          8.7970  -39.8420  -33.5050 O.2   432  GLY432     -0.2863
     90  N          9.5880  -41.3600  -30.8990 N.3   435  GLN435     -0.1245
     91  CA         9.0420  -40.6070  -29.7790 C.3   435  GLN435      0.1566
     92  C          7.5420  -40.8540  -29.6550 C.2   435  GLN435      0.2260
     93  O          6.9710  -40.6700  -28.5820 O.2   435  GLN435     -0.2867
     94  CB         9.3310  -39.1080  -29.9070 C.3   435  GLN435      0.0367
     95  CG        10.7900  -38.7560  -29.6500 C.3   435  GLN435      0.0905
     96  CD        10.9660  -37.4560  -28.8730 C.2   435  GLN435      0.2608
     97  OE1       10.0180  -36.6990  -28.6800 O.2   435  GLN435     -0.2717
     98  NE2       12.1910  -37.1920  -28.4330 N.am  435  GLN435     -0.0878
     99  N         11.8640  -41.8670  -42.9370 N.3   455  TRP455     -0.1241
    100  CA        13.0920  -41.5640  -43.6600 C.3   455  TRP455      0.1605
    101  C         14.1910  -42.0200  -42.6980 C.2   455  TRP455      0.2264
    102  O         14.3600  -41.4370  -41.6260 O.2   455  TRP455     -0.2867
    103  CB        13.2120  -40.0610  -43.9250 C.3   455  TRP455      0.0550
    104  CG        12.2930  -39.5380  -44.9960 C.ar  455  TRP455      0.0003
    105  CD1       10.9810  -39.8750  -45.1960 C.ar  455  TRP455      0.0946
    106  CD2       12.6070  -38.5450  -45.9830 C.ar  455  TRP455      0.0152
    107  NE1       10.4590  -39.1500  -46.2460 N.ar  455  TRP455     -0.2442
    108  CE2       11.4350  -38.3250  -46.7450 C.ar  455  TRP455      0.0810
    109  CE3       13.7650  -37.8170  -46.2950 C.ar  455  TRP455      0.0012
    110  CZ2       11.3880  -37.4040  -47.8030 C.ar  455  TRP455      0.0191
    111  CZ3       13.7190  -36.8990  -47.3520 C.ar  455  TRP455      0.0001
    112  CH2       12.5360  -36.7050  -48.0900 C.ar  455  TRP455      0.0015
    113  N         18.0440  -42.5530  -41.5520 N.3   457  ASP457     -0.1239
    114  CA        19.4090  -42.0430  -41.6800 C.3   457  ASP457      0.1674
    115  C         20.2090  -42.4250  -40.4370 C.2   457  ASP457      0.2266
    116  O         21.4000  -42.1350  -40.3420 O.2   457  ASP457     -0.2867
    117  CB        19.3970  -40.5230  -41.8020 C.3   457  ASP457      0.1410
    118  CG        19.0710  -39.8410  -40.4850 C.2   457  ASP457      0.3668
    119  OD1       18.0920  -40.2610  -39.8300 O.co2 457  ASP457     -0.2456
    120  OD2       19.7920  -38.8890  -40.1090 O.co2 457  ASP457     -0.2456
    121  N         19.9950  -41.2060  -37.4030 N.3   459  GLY459     -0.1210
    122  CA        20.4520  -40.0630  -36.6400 C.3   459  GLY459      0.1956
    123  C         19.4500  -38.9330  -36.5900 C.2   459  GLY459      0.2612
    124  O         18.3420  -39.0460  -37.1180 O.2   459  GLY459     -0.2717
    125  N         19.8360  -37.8540  -35.9170 N.am  460  TYR460     -0.1962
    126  CA        19.0130  -36.6540  -35.8120 C.3   460  TYR460      0.1771
    127  C         19.6400  -35.6970  -36.8290 C.2   460  TYR460      0.2620
    128  O         20.3550  -34.7620  -36.4630 O.2   460  TYR460     -0.2715
    129  CB        19.1190  -36.0580  -34.4040 C.3   460  TYR460      0.0574
    130  CG        18.5170  -36.9130  -33.3000 C.ar  460  TYR460     -0.0198
    131  CD1       19.2270  -37.1640  -32.1260 C.ar  460  TYR460     -0.0009
    132  CD2       17.2240  -37.4350  -33.4120 C.ar  460  TYR460     -0.0009
    133  CE1       18.6690  -37.9120  -31.0880 C.ar  460  TYR460      0.0417
    134  CE2       16.6560  -38.1840  -32.3750 C.ar  460  TYR460      0.0417
    135  CZ        17.3880  -38.4160  -31.2170 C.ar  460  TYR460      0.1957
    136  OH        16.8350  -39.1340  -30.1770 O.3   460  TYR460     -0.2866
    137  N         19.3790  -35.9310  -38.1100 N.am  461  ASN461     -0.1958
    138  CA        19.9830  -35.1020  -39.1490 C.3   461  ASN461      0.1819
    139  C         19.7270  -33.6050  -39.0920 C.2   461  ASN461      0.2621
    140  O         20.6610  -32.8220  -39.2530 O.2   461  ASN461     -0.2715
    141  CB        19.6080  -35.6230  -40.5370 C.3   461  ASN461      0.1195
    142  CG        20.4040  -34.9410  -41.6450 C.2   461  ASN461      0.2630
    143  OD1       19.9910  -33.9140  -42.1840 O.2   461  ASN461     -0.2716
    144  ND2       21.5640  -35.5030  -41.9700 N.am  461  ASN461     -0.0877
    145  N         18.4850  -33.1910  -38.8700 N.am  462  MET462     -0.1963
    146  CA        18.1900  -31.7580  -38.8310 C.3   462  MET462      0.1736
    147  C         19.0770  -30.9940  -37.8480 C.2   462  MET462      0.2616
    148  O         19.3780  -29.8160  -38.0610 O.2   462  MET462     -0.2715
    149  CB        16.7130  -31.5120  -38.5110 C.3   462  MET462      0.0427
    150  CG        16.3270  -30.0360  -38.5470 C.3   462  MET462      0.0599
    151  SD        14.5430  -29.7340  -38.4770 S.3   462  MET462     -0.1393
    152  CE        14.1770  -29.5220  -40.1940 C.3   462  MET462      0.0692
    153  N         19.4950  -31.6560  -36.7730 N.am  463  VAL463     -0.1977
    154  CA        20.3670  -31.0220  -35.7910 C.3   463  VAL463      0.1596
    155  C         21.8210  -31.2210  -36.2330 C.2   463  VAL463      0.2287
    156  O         22.6550  -30.3300  -36.0870 O.2   463  VAL463     -0.2864
    157  CB        20.1790  -31.6350  -34.3740 C.3   463  VAL463      0.0276
    158  CG1       21.1630  -31.0020  -33.3960 C.3   463  VAL463      0.0022
    159  CG2       18.7520  -31.4170  -33.8890 C.3   463  VAL463      0.0022
    160  N         23.1160  -28.5900  -38.6770 N.3   466  GLN466     -0.1245
    161  CA        23.3130  -27.2680  -38.0990 C.3   466  GLN466      0.1566
    162  C         24.6430  -27.2720  -37.3520 C.2   466  GLN466      0.2260
    163  O         25.3720  -26.2820  -37.3620 O.2   466  GLN466     -0.2867
    164  CB        22.1660  -26.9090  -37.1540 C.3   466  GLN466      0.0367
    165  CG        20.8340  -26.7360  -37.8610 C.3   466  GLN466      0.0905
    166  CD        19.7350  -26.2740  -36.9280 C.2   466  GLN466      0.2608
    167  OE1       19.8340  -25.2130  -36.3140 O.2   466  GLN466     -0.2717
    168  NE2       18.6760  -27.0710  -36.8190 N.am  466  GLN466     -0.0878
    169  N         21.4630  -38.1700  -46.9790 N.3   526  TYR526     -0.1241
    170  CA        21.3770  -36.7440  -46.6760 C.3   526  TYR526      0.1605
    171  C         22.6040  -35.9140  -47.0710 C.2   526  TYR526      0.2264
    172  O         22.7080  -34.7440  -46.7050 O.2   526  TYR526     -0.2867
    173  CB        21.0970  -36.5630  -45.1760 C.3   526  TYR526      0.0534
    174  CG        19.6390  -36.7100  -44.7700 C.ar  526  TYR526     -0.0201
    175  CD1       19.2910  -37.2930  -43.5450 C.ar  526  TYR526     -0.0009
    176  CD2       18.6120  -36.2090  -45.5740 C.ar  526  TYR526     -0.0009
    177  CE1       17.9580  -37.3670  -43.1240 C.ar  526  TYR526      0.0417
    178  CE2       17.2750  -36.2760  -45.1650 C.ar  526  TYR526      0.0417
    179  CZ        16.9560  -36.8550  -43.9350 C.ar  526  TYR526      0.1957
    180  OH        15.6440  -36.8880  -43.5070 O.3   526  TYR526     -0.2866
@<TRIPOS>BOND
     1   112   110   ar
     2   112   111   ar
     3   110   108   ar
     4   111   109   ar
     5   171   172    2
     6   171   170    1
     7   169   170    1
     8   108   107   ar
     9   108   106   ar
    10   170   173    1
    11   109   106   ar
    12   107   105   ar
    13   106   104   ar
    14   176   178   ar
    15   176   174   ar
    16    29    28    2
    17   105   104   ar
    18   173   174    1
    19   178   179   ar
    20   104   103    1
    21   174   175   ar
    22    28    27    1
    23    27    30    1
    24    27    26    1
    25    23    22    2
    26    30    31    1
    27   179   180    1
    28   179   177   ar
    29   103   100    1
    30   100    99    1
    31   100   101    1
    32    22    26   am
    33    22    21    1
    34   175   177   ar
    35    24    21    1
    36    24    25    1
    37    31    32   ar
    38    31    33   ar
    39   101   102    2
    40    32    34   ar
    41    21    20    1
    42   143   142    2
    43   144   142   am
    44   117   114    1
    45   117   118    1
    46   114   113    1
    47   114   115    1
    48   142   141    1
    49    33    35   ar
    50    19    18    2
    51    34    36   ar
    52    20    18   am
    53    18    17    1
    54   141   138    1
    55   118   120   ar
    56   118   119   ar
    57   115   116    2
    58    35    36   ar
    59   152   151    1
    60    71    70    1
    61    71    72    1
    62    17    16    1
    63   140   139    2
    64   138   139    1
    65   138   137    1
    66   139   145   am
    67    16    10   am
    68   145   146    1
    69   146   149    1
    70   146   147    1
    71    81    79   ar
    72   160   161    1
    73   150   149    1
    74   150   151    1
    75    72    74   am
    76    72    73    2
    77    74    75    1
    78    79    80   ar
    79    79    78    1
    80   137   127   am
    81   161   162    1
    82   161   164    1
    83    14    15    1
    84    14    13    1
    85   148   147    2
    86    10     9    1
    87    10    11    2
    88   165   164    1
    89   165   166    1
    90   147   153   am
    91     9     8    1
    92     9    12    1
    93    78    75    1
    94   121   122    1
    95   163   162    2
    96    75    76    1
    97   124   123    2
    98   166   168   am
    99   166   167    2
   100   127   128    2
   101   127   126    1
   102   153   154    1
   103   122   123    1
   104    13    12    1
   105   123   125   am
   106   155   156    2
   107   155   154    1
   108   125   126    1
   109    76    82   am
   110    76    77    2
   111   126   129    1
   112   154   157    1
   113    53    52    2
   114    82    83    1
   115    52    51    1
   116    52    54   am
   117    51    50    1
   118    86    87    1
   119    86    84   am
   120    87    88    1
   121   129   130    1
   122   157   159    1
   123   157   158    1
   124    88    89    2
   125    83    84    1
   126    50    47    1
   127    47    46    1
   128    47    48    1
   129    84    85    2
   130    58    57    2
   131    46    39   am
   132   132   130   ar
   133   132   134   ar
   134   130   131   ar
   135    48    49    2
   136    48    55   am
   137    63    66    1
   138    63    64    1
   139    63    62    1
   140    66    67    1
   141    37    38    1
   142    55    56    1
   143    57    62   am
   144    57    56    1
   145    64    65    2
   146   134   135   ar
   147    39    38    1
   148    39    40    2
   149   131   133   ar
   150    69    68    1
   151    56    59    1
   152    38    41    1
   153    67    68    1
   154   135   133   ar
   155   135   136    1
   156    59    60    1
   157    59    61    1
   158    90    91    1
   159    41    42    1
   160    42    43    1
   161    94    91    1
   162    94    95    1
   163    91    92    1
   164    92    93    2
   165    95    96    1
   166    45    43   am
   167    43    44    2
   168    96    97    2
   169    96    98   am
   170     4     3    2
   171     7     5    1
   172     3     2    1
   173     5     2    1
   174     5     6    1
   175     2     1    1
