@<TRIPOS>MOLECULE
tmp/1ozvB00.pdb
 162 159 0 0 0
SMALL
GASTEIGER

@<TRIPOS>ATOM
      1  N        104.2510   42.4390   88.0580 N.3    32  THR32      -0.1203
      2  CA       105.0100   43.4620   88.7610 C.3    32  THR32       0.1994
      3  C        104.1230   44.0930   89.8220 C.2    32  THR32       0.2618
      4  O        104.5580   44.3310   90.9580 O.2    32  THR32      -0.2717
      5  CB       105.4930   44.5820   87.8020 C.3    32  THR32       0.1784
      6  OG1      106.6420   44.1340   87.0660 O.3    32  THR32      -0.2211
      7  CG2      105.8520   45.8380   88.5840 C.3    32  THR32       0.0376
      8  N        102.8740   44.3580   89.4500 N.am   33  GLU33      -0.1965
      9  CA       101.9310   44.9720   90.3790 C.3    33  GLU33       0.1733
     10  C        101.1930   43.9710   91.3050 C.2    33  GLU33       0.2617
     11  O        100.1280   44.2820   91.8360 O.2    33  GLU33      -0.2715
     12  CB       100.9440   45.8640   89.5950 C.3    33  GLU33       0.0429
     13  CG       100.5190   45.2890   88.2570 C.3    33  GLU33       0.1163
     14  CD       101.3080   45.8280   87.0580 C.2    33  GLU33       0.3649
     15  OE1      101.1530   47.0130   86.6990 O.co2  33  GLU33      -0.2457
     16  OE2      102.0830   45.0710   86.4550 O.co2  33  GLU33      -0.2457
     17  N        101.7800   42.7900   91.5130 N.am   34  GLY34      -0.1940
     18  CA       101.1870   41.7740   92.3850 C.3    34  GLY34       0.2014
     19  C        100.5130   40.6930   91.5670 C.2    34  GLY34       0.2638
     20  O        101.1600   40.0420   90.7430 O.2    34  GLY34      -0.2714
     21  N         99.2200   40.4830   91.8040 N.am   35  LEU35      -0.1977
     22  CA        98.4530   39.5320   91.0140 C.3    35  LEU35       0.1596
     23  C         97.7220   40.3720   89.9530 C.2    35  LEU35       0.2287
     24  O         97.3660   41.5270   90.1970 O.2    35  LEU35      -0.2864
     25  CB        97.4540   38.7630   91.8860 C.3    35  LEU35       0.0297
     26  CG        98.0140   37.4980   92.5520 C.3    35  LEU35       0.0022
     27  CD1       96.9800   36.8820   93.4810 C.3    35  LEU35       0.0001
     28  CD2       98.4120   36.4980   91.4810 C.3    35  LEU35       0.0001
     29  N         93.4360   34.8340   98.9050 N.3   102  ILE102     -0.1245
     30  CA        94.1890   35.4530   97.8300 C.3   102  ILE102      0.1561
     31  C         94.5160   36.9170   98.0880 C.2   102  ILE102      0.2260
     32  O         95.4100   37.4720   97.4630 O.2   102  ILE102     -0.2867
     33  CB        93.3920   35.2960   96.5050 C.3   102  ILE102      0.0252
     34  CG1       93.5150   33.8550   96.0220 C.3   102  ILE102      0.0019
     35  CG2       93.8750   36.2560   95.4330 C.3   102  ILE102      0.0019
     36  CD1       94.9420   33.3580   95.9630 C.3   102  ILE102      0.0001
     37  N         95.9290   40.4120   99.5920 N.3   104  PRO104     -0.2116
     38  CA        97.2030   40.8090  100.1880 C.3   104  PRO104      0.1372
     39  C         96.9160   41.3080  101.6010 C.2   104  PRO104      0.2244
     40  O         95.8100   41.7520  101.8850 O.2   104  PRO104     -0.2868
     41  CB        97.6820   41.9370   99.2630 C.3   104  PRO104      0.0268
     42  CG        96.9790   41.6740   97.9660 C.3   104  PRO104      0.0207
     43  CD        95.6090   41.2550   98.4270 C.3   104  PRO104      0.0892
     44  N         99.0800   46.9850  101.3050 N.3   107  THR107     -0.1203
     45  CA        99.2860   47.6440  100.0230 C.3   107  THR107      0.1994
     46  C        100.3610   48.6740  100.3650 C.2   107  THR107      0.2617
     47  O        100.8360   48.7130  101.4960 O.2   107  THR107     -0.2717
     48  CB        98.0280   48.3860   99.5300 C.3   107  THR107      0.1784
     49  OG1       97.8580   49.5880  100.2850 O.3   107  THR107     -0.2211
     50  CG2       96.7850   47.5160   99.6910 C.3   107  THR107      0.0376
     51  N        100.7700   49.4940   99.4080 N.am  108  ASP108     -0.1973
     52  CA       101.7610   50.5030   99.7270 C.3   108  ASP108      0.1709
     53  C        101.0510   51.8040  100.0580 C.2   108  ASP108      0.2293
     54  O        101.6210   52.8790   99.9340 O.2   108  ASP108     -0.2864
     55  CB       102.7460   50.7210   98.5770 C.3   108  ASP108      0.1436
     56  CG       103.8280   49.6620   98.5310 C.2   108  ASP108      0.3671
     57  OD1      104.1010   49.0480   99.5780 O.co2 108  ASP108     -0.2456
     58  OD2      104.4230   49.4500   97.4550 O.co2 108  ASP108     -0.2456
     59  N         91.0770   50.1830   98.2070 N.3   174  SER174     -0.1202
     60  CA        91.9280   49.8580   97.0540 C.3   174  SER174      0.2020
     61  C         91.3190   48.8520   96.0770 C.2   174  SER174      0.2618
     62  O         91.7750   48.7410   94.9400 O.2   174  SER174     -0.2717
     63  CB        93.2980   49.3250   97.5180 C.3   174  SER174      0.2103
     64  OG        93.2390   47.9690   97.9330 O.3   174  SER174     -0.2182
     65  N         90.2900   48.1300   96.5080 N.am  175  ARG175     -0.1979
     66  CA        89.6710   47.1320   95.6500 C.3   175  ARG175      0.1597
     67  C         88.3060   47.4410   95.0800 C.2   175  ARG175      0.2287
     68  O         88.0890   47.2670   93.8970 O.2   175  ARG175     -0.2864
     69  CB        89.5740   45.8040   96.3850 C.3   175  ARG175      0.0334
     70  CG        90.8940   45.1860   96.6210 C.3   175  ARG175      0.0492
     71  CD        90.7810   43.7630   97.0620 C.3   175  ARG175      0.2205
     72  NE        92.1210   43.2390   96.9620 N.pl3 175  ARG175     -0.0865
     73  CZ        92.6090   42.6020   95.9070 C.cat 175  ARG175      0.5346
     74  NH1       91.8560   42.3560   94.8460 N.pl3 175  ARG175      0.1354
     75  NH2       93.8990   42.3100   95.8830 N.pl3 175  ARG175      0.1354
     76  N         88.2510   42.4040   90.8260 N.3   192  ASP192     -0.1225
     77  CA        89.2300   43.2650   91.4860 C.3   192  ASP192      0.1805
     78  C         90.6700   42.8750   91.2820 C.2   192  ASP192      0.2598
     79  O         91.5510   43.5230   91.8150 O.2   192  ASP192     -0.2718
     80  CB        88.9610   43.4290   92.9980 C.3   192  ASP192      0.1424
     81  CG        89.1300   42.1420   93.7830 C.2   192  ASP192      0.3668
     82  OD1       89.7990   41.2060   93.2780 O.co2 192  ASP192     -0.2456
     83  OD2       88.5990   42.0800   94.9200 O.co2 192  ASP192     -0.2456
     84  N         90.9160   41.8240   90.5130 N.am  193  LEU193     -0.1966
     85  CA        92.2860   41.4060   90.2410 C.3   193  LEU193      0.1728
     86  C         92.8690   42.2620   89.1320 C.2   193  LEU193      0.2616
     87  O         94.0540   42.1730   88.8360 O.2   193  LEU193     -0.2715
     88  CB        92.3510   39.9320   89.8020 C.3   193  LEU193      0.0311
     89  CG        92.2850   38.8200   90.8510 C.3   193  LEU193      0.0022
     90  CD1       92.3280   37.4710   90.1400 C.3   193  LEU193      0.0001
     91  CD2       93.4520   38.9400   91.8270 C.3   193  LEU193      0.0001
     92  N         92.0420   43.0900   88.5110 N.am  194  ILE194     -0.1963
     93  CA        92.5270   43.9150   87.4050 C.3   194  ILE194      0.1727
     94  C         93.3170   45.1570   87.8410 C.2   194  ILE194      0.2616
     95  O         92.8960   45.9080   88.7190 O.2   194  ILE194     -0.2715
     96  CB        91.3560   44.3210   86.4780 C.3   194  ILE194      0.0290
     97  CG1       91.9080   44.9430   85.1890 C.3   194  ILE194      0.0022
     98  CG2       90.4240   45.2830   87.2020 C.3   194  ILE194      0.0023
     99  CD1       91.0090   44.7390   83.9830 C.3   194  ILE194      0.0001
    100  N         94.4640   45.3700   87.2130 N.am  195  ASN195     -0.1958
    101  CA        95.3030   46.5020   87.5710 C.3   195  ASN195      0.1819
    102  C         95.1160   47.7920   86.7610 C.2   195  ASN195      0.2621
    103  O         94.4070   47.8200   85.7390 O.2   195  ASN195     -0.2715
    104  CB        96.7690   46.0680   87.5470 C.3   195  ASN195      0.1195
    105  CG        97.0560   44.9830   88.5690 C.2   195  ASN195      0.2630
    106  OD1       96.7590   45.1470   89.7610 O.2   195  ASN195     -0.2716
    107  ND2       97.6230   43.8620   88.1150 N.am  195  ASN195     -0.0877
    108  N         95.7620   48.8570   87.2450 N.am  196  HIS196     -0.1959
    109  CA        95.7150   50.1810   86.6290 C.3   196  HIS196      0.1787
    110  C         96.8510   50.4470   85.6270 C.2   196  HIS196      0.2620
    111  O         97.9760   49.9840   85.8030 O.2   196  HIS196     -0.2715
    112  CB        95.7770   51.2490   87.7150 C.3   196  HIS196      0.0785
    113  CG        96.0080   52.6300   87.1870 C.ar  196  HIS196      0.0821
    114  ND1       94.9790   53.4590   86.7930 N.ar  196  HIS196     -0.2267
    115  CD2       97.1530   53.2980   86.9140 C.ar  196  HIS196      0.1154
    116  CE1       95.4810   54.5750   86.2960 C.ar  196  HIS196      0.1986
    117  NE2       96.7970   54.5020   86.3550 N.ar  196  HIS196     -0.2212
    118  N         96.5510   51.1970   84.5710 N.am  197  SER197     -0.1950
    119  CA        97.5700   51.5540   83.6030 C.3   197  SER197      0.1924
    120  C         97.2900   52.9530   83.0900 C.2   197  SER197      0.2314
    121  O         96.1690   53.2760   82.7100 O.2   197  SER197     -0.2863
    122  CB        97.5960   50.5730   82.4360 C.3   197  SER197      0.2116
    123  OG        98.5270   50.9980   81.4500 O.3   197  SER197     -0.2180
    124  N         91.8790   53.5330   86.8000 N.3   240  TYR240     -0.1241
    125  CA        91.2170   53.6150   88.0890 C.3   240  TYR240      0.1605
    126  C         90.4740   54.9200   88.3040 C.2   240  TYR240      0.2264
    127  O         89.4260   54.9220   88.9330 O.2   240  TYR240     -0.2867
    128  CB        92.2180   53.3850   89.2260 C.3   240  TYR240      0.0534
    129  CG        92.6030   51.9370   89.4570 C.ar  240  TYR240     -0.0201
    130  CD1       93.2950   51.5660   90.6000 C.ar  240  TYR240     -0.0009
    131  CD2       92.2670   50.9390   88.5420 C.ar  240  TYR240     -0.0009
    132  CE1       93.6470   50.2480   90.8420 C.ar  240  TYR240      0.0417
    133  CE2       92.6190   49.5950   88.7730 C.ar  240  TYR240      0.0417
    134  CZ        93.3110   49.2630   89.9290 C.ar  240  TYR240      0.1957
    135  OH        93.6900   47.9670   90.1760 O.3   240  TYR240     -0.2866
    136  N         95.5110   53.5120   96.6740 N.3   253  TYR253     -0.1227
    137  CA        96.2320   52.3570   96.1490 C.3   253  TYR253      0.1736
    138  C         97.6970   52.5510   96.5590 C.2   253  TYR253      0.2596
    139  O         98.0970   53.6370   96.9850 O.2   253  TYR253     -0.2718
    140  CB        96.0990   52.3400   94.6320 C.3   253  TYR253      0.0548
    141  CG        94.7180   52.7640   94.1530 C.ar  253  TYR253     -0.0200
    142  CD1       94.5300   53.9770   93.4840 C.ar  253  TYR253     -0.0009
    143  CD2       93.5890   51.9630   94.4040 C.ar  253  TYR253     -0.0009
    144  CE1       93.2560   54.3830   93.0780 C.ar  253  TYR253      0.0417
    145  CE2       92.3090   52.3620   94.0070 C.ar  253  TYR253      0.0417
    146  CZ        92.1480   53.5710   93.3440 C.ar  253  TYR253      0.1957
    147  OH        90.8890   53.9710   92.9430 O.3   253  TYR253     -0.2866
    148  N         98.5230   51.5300   96.4460 N.am  254  GLY254     -0.1942
    149  CA        99.8980   51.7540   96.8580 C.3   254  GLY254      0.2014
    150  C        100.7660   52.3120   95.7580 C.2   254  GLY254      0.2638
    151  O        101.8630   51.8060   95.5630 O.2   254  GLY254     -0.2714
    152  N        100.3150   53.3410   95.0380 N.am  255  PHE255     -0.1973
    153  CA       101.1400   53.8720   93.9460 C.3   255  PHE255      0.1639
    154  C        100.8100   55.2890   93.4750 C.2   255  PHE255      0.2290
    155  O         99.8440   55.8910   93.9260 O.2   255  PHE255     -0.2864
    156  CB       101.0700   52.9140   92.7420 C.3   255  PHE255      0.0560
    157  CG        99.7340   52.9210   92.0280 C.ar  255  PHE255     -0.0200
    158  CD1       99.4700   53.8500   91.0130 C.ar  255  PHE255     -0.0042
    159  CD2       98.7230   52.0340   92.3950 C.ar  255  PHE255     -0.0042
    160  CE1       98.2160   53.9000   90.3720 C.ar  255  PHE255     -0.0003
    161  CE2       97.4610   52.0730   91.7580 C.ar  255  PHE255     -0.0003
    162  CZ        97.2130   53.0150   90.7420 C.ar  255  PHE255     -0.0000
@<TRIPOS>BOND
     1   123   122    1
     2   122   119    1
     3   121   120    2
     4   120   119    1
     5   119   118    1
     6    99    97    1
     7   118   110   am
     8    97    96    1
     9   110   111    2
    10   110   109    1
    11   103   102    2
    12   116   117   ar
    13   116   114   ar
    14   117   115   ar
    15    16    14   ar
    16    96    98    1
    17    96    93    1
    18   109   108    1
    19   109   112    1
    20    15    14   ar
    21   102   108   am
    22   102   101    1
    23   114   113   ar
    24   124   125    1
    25   115   113   ar
    26    14    13    1
    27     6     5    1
    28   113   112    1
    29   100   101    1
    30   100    94   am
    31    93    94    1
    32    93    92    1
    33   104   101    1
    34   104   105    1
    35     5     7    1
    36     5     2    1
    37    94    95    2
    38     1     2    1
    39   125   126    1
    40   125   128    1
    41   107   105   am
    42    13    12    1
    43   126   127    2
    44    92    86   am
    45   131   133   ar
    46   131   129   ar
    47   105   106    2
    48     2     3    1
    49   133   134   ar
    50    87    86    2
    51    86    85    1
    52   128   129    1
    53     8     3   am
    54     8     9    1
    55   129   130   ar
    56    12     9    1
    57    88    85    1
    58    88    89    1
    59     3     4    2
    60   134   135    1
    61   134   132   ar
    62    23    24    2
    63    23    22    1
    64    90    89    1
    65    85    84    1
    66   160   162   ar
    67   160   158   ar
    68     9    10    1
    69    84    78   am
    70   130   132   ar
    71   162   161   ar
    72    20    19    2
    73    76    77    1
    74    89    91    1
    75   158   157   ar
    76    22    21    1
    77    22    25    1
    78    78    77    1
    79    78    79    2
    80    10    17   am
    81    10    11    2
    82    28    26    1
    83    77    80    1
    84    17    18    1
    85    19    21   am
    86    19    18    1
    87   161   159   ar
    88    25    26    1
    89   157   159   ar
    90   157   156    1
    91    26    27    1
    92   156   153    1
    93   147   146    1
    94    80    81    1
    95   144   146   ar
    96   144   142   ar
    97    82    81   ar
    98   146   145   ar
    99   154   155    2
   100   154   153    1
   101   142   141   ar
   102    81    83   ar
   103    68    67    2
   104   153   152    1
   105   145   143   ar
   106   141   143   ar
   107   141   140    1
   108   140   137    1
   109    74    73    1
   110    62    61    2
   111   152   150   am
   112    67    66    1
   113    35    33    1
   114   151   150    2
   115    66    69    1
   116    66    65    1
   117   150   149    1
   118    75    73    1
   119    73    72    2
   120    36    34    1
   121    34    33    1
   122    61    65   am
   123    61    60    1
   124   137   138    1
   125   137   136    1
   126    69    70    1
   127   148   138   am
   128   148   149    1
   129    33    30    1
   130   138   139    2
   131    70    71    1
   132    72    71    1
   133    60    63    1
   134    60    59    1
   135    58    56   ar
   136    32    31    2
   137    63    64    1
   138    30    31    1
   139    30    29    1
   140    42    43    1
   141    42    41    1
   142    43    37    1
   143    56    55    1
   144    56    57   ar
   145    55    52    1
   146    41    38    1
   147    51    52    1
   148    51    46   am
   149    48    50    1
   150    48    45    1
   151    48    49    1
   152    37    38    1
   153    52    53    1
   154    54    53    2
   155    45    46    1
   156    45    44    1
   157    38    39    1
   158    46    47    2
   159    39    40    2
