@<TRIPOS>MOLECULE
tmp/1p01A00.pdb
 152 148 0 0 0
SMALL
GASTEIGER

@<TRIPOS>ATOM
      1  N         16.3310   27.0160   21.4630 N.3    36  HIS36      -0.1297
      2  CA        14.8780   27.2310   21.1960 C.3    36  HIS36       0.1306
      3  C         14.4650   26.2810   20.0920 C.3    36  HIS36       0.2013
      4  O         13.2090   26.2870   20.0040 O.3    36  HIS36      -0.2188
      5  CB        14.5160   28.6960   20.9510 C.3    36  HIS36       0.0691
      6  CG        14.9590   29.1550   19.5730 C.ar   36  HIS36       0.0814
      7  ND1       16.1330   29.8730   19.3140 N.ar   36  HIS36      -0.2268
      8  CD2       14.3010   28.9950   18.3940 C.ar   36  HIS36       0.1154
      9  CE1       16.1750   30.1810   18.0010 C.ar   36  HIS36       0.1986
     10  NE2       15.0860   29.6260   17.4570 N.ar   36  HIS36      -0.2212
     11  N         17.1440   27.2000   27.2840 N.3    59  PHE59      -0.1298
     12  CA        16.5010   28.3430   26.5870 C.3    59  PHE59       0.1290
     13  C         15.2490   28.6770   27.4370 C.3    59  PHE59       0.2013
     14  O         14.5690   27.6900   27.6960 O.3    59  PHE59      -0.2188
     15  CB        15.9820   28.0090   25.1690 C.3    59  PHE59       0.0480
     16  CG        15.1710   29.1140   24.5260 C.ar   59  PHE59      -0.0206
     17  CD1       13.7600   29.0530   24.5570 C.ar   59  PHE59      -0.0042
     18  CD2       15.8190   30.2230   23.9820 C.ar   59  PHE59      -0.0042
     19  CE1       13.0300   30.1030   24.0090 C.ar   59  PHE59      -0.0003
     20  CE2       15.0310   31.2780   23.4280 C.ar   59  PHE59      -0.0003
     21  CZ        13.6360   31.2300   23.4560 C.ar   59  PHE59      -0.0000
     22  N         18.8900   39.6180   24.4390 N.3   121  ALA121     -0.1231
     23  CA        17.7510   39.6940   23.4760 C.3   121  ALA121      0.1694
     24  C         16.5510   39.5060   24.4090 C.2   121  ALA121      0.2592
     25  O         16.5750   38.5590   25.2560 O.2   121  ALA121     -0.2718
     26  CB        17.8450   38.5350   22.4700 C.3   121  ALA121      0.0304
     27  N         15.5580   40.3390   24.3050 N.am  122  ASN122     -0.1960
     28  CA        14.3480   40.1800   25.1500 C.3   122  ASN122      0.1819
     29  C         13.3040   39.4160   24.3480 C.2   122  ASN122      0.2621
     30  O         12.4550   40.1020   23.7440 O.2   122  ASN122     -0.2715
     31  CB        13.8670   41.5730   25.6100 C.3   122  ASN122      0.1195
     32  CG        14.8090   41.9460   26.7690 C.2   122  ASN122      0.2630
     33  OD1       15.0550   41.2200   27.7730 O.2   122  ASN122     -0.2716
     34  ND2       15.3960   43.1370   26.6350 N.am  122  ASN122     -0.0877
     35  N         13.3680   38.1070   24.3230 N.am  123  TYR123     -0.1960
     36  CA        12.3910   37.3050   23.5470 C.3   123  TYR123      0.1771
     37  C         11.0940   37.1480   24.3670 C.2   123  TYR123      0.2619
     38  O         11.1090   37.3340   25.6090 O.2   123  TYR123     -0.2715
     39  CB        12.9960   35.9730   23.1360 C.3   123  TYR123      0.0574
     40  CG        14.2350   35.9400   22.2480 C.ar  123  TYR123     -0.0198
     41  CD1       15.2170   34.9820   22.5370 C.ar  123  TYR123     -0.0009
     42  CD2       14.4320   36.7600   21.1600 C.ar  123  TYR123     -0.0009
     43  CE1       16.3850   34.8840   21.7460 C.ar  123  TYR123      0.0417
     44  CE2       15.5550   36.6610   20.3600 C.ar  123  TYR123      0.0417
     45  CZ        16.5270   35.7020   20.6430 C.ar  123  TYR123      0.1957
     46  OH        17.6500   35.5770   19.8340 O.3   123  TYR123     -0.2866
     47  N         10.0190   36.8060   23.6450 N.am  124  ALA124     -0.1963
     48  CA         8.7240   36.6040   24.3130 C.3   124  ALA124      0.1728
     49  C          8.8790   35.6290   25.4870 C.2   124  ALA124      0.2616
     50  O          8.2700   35.8040   26.5890 O.2   124  ALA124     -0.2715
     51  CB         7.6940   36.0890   23.2930 C.3   124  ALA124      0.0334
     52  N          9.6820   34.5910   25.2980 N.am  125  GLU125     -0.1977
     53  CA         9.8600   33.5980   26.3470 C.3   125  GLU125      0.1602
     54  C         10.6710   34.0460   27.5610 C.2   125  GLU125      0.2287
     55  O         10.5360   33.3720   28.5920 O.2   125  GLU125     -0.2864
     56  CB        10.6410   32.3980   25.7360 C.3   125  GLU125      0.0415
     57  CG         9.7590   31.7060   24.7010 C.3   125  GLU125      0.1163
     58  CD         9.9940   32.2700   23.3190 C.2   125  GLU125      0.3649
     59  OE1       10.4610   33.3650   23.0520 O.co2 125  GLU125     -0.2457
     60  OE2        9.5790   31.4240   22.4830 O.co2 125  GLU125     -0.2457
     61  N         19.7690   37.4030    7.9760 N.3   138  MET138     -0.1230
     62  CA        19.2550   36.0700    8.3960 C.3   138  MET138      0.1702
     63  C         17.7260   36.0720    8.3320 C.2   138  MET138      0.2593
     64  O         17.1350   37.1710    8.2610 O.2   138  MET138     -0.2718
     65  CB        19.7100   35.8150    9.8580 C.3   138  MET138      0.0401
     66  CG        19.3440   36.9220   10.8460 C.3   138  MET138      0.0596
     67  SD        17.7660   36.4760   11.6800 S.3   138  MET138     -0.1393
     68  CE        17.1690   38.0380   12.3040 C.3   138  MET138      0.0692
     69  N         17.1090   34.9230    8.3890 N.am  139  GLY139     -0.1942
     70  CA        15.6390   34.8530    8.3380 C.3   139  GLY139      0.2014
     71  C         15.1340   33.6700    9.1440 C.2   139  GLY139      0.2639
     72  O         15.8750   32.7830    9.6000 O.2   139  GLY139     -0.2714
     73  N         13.8230   33.5960    9.3150 N.am  140  ARG140     -0.1963
     74  CA        13.1400   32.5530   10.0500 C.3   140  ARG140      0.1729
     75  C         13.5560   31.2080    9.4380 C.2   140  ARG140      0.2617
     76  O         13.3530   31.0600    8.2280 O.2   140  ARG140     -0.2715
     77  CB        11.6390   32.7410    9.8630 C.3   140  ARG140      0.0348
     78  CG        10.9930   33.9200   10.6110 C.3   140  ARG140      0.0492
     79  CD         9.5120   33.8380   10.2160 C.3   140  ARG140      0.2205
     80  NE         8.9860   35.0990   10.7050 N.pl3 140  ARG140     -0.0865
     81  CZ         8.1570   35.7630    9.8540 C.cat 140  ARG140      0.5346
     82  NH1        8.0400   37.0230   10.2960 N.pl3 140  ARG140      0.1354
     83  NH2        7.5870   35.2540    8.7680 N.pl3 140  ARG140      0.1354
     84  N         14.0720   30.3120   10.2670 N.am  141  GLY141     -0.1940
     85  CA        14.5100   29.0020    9.7390 C.3   141  GLY141      0.2014
     86  C         16.0560   28.9260    9.9080 C.2   141  GLY141      0.2639
     87  O         16.5860   27.7840    9.9370 O.2   141  GLY141     -0.2714
     88  N         16.7200   30.0770    9.9340 N.am  142  ASP142     -0.1957
     89  CA        18.1830   30.0360   10.0560 C.3   142  ASP142      0.1840
     90  C         18.6460   29.6480   11.4820 C.2   142  ASP142      0.2622
     91  O         19.8740   29.3910   11.6300 O.2   142  ASP142     -0.2715
     92  CB        18.6620   31.4580    9.6620 C.3   142  ASP142      0.1450
     93  CG        18.6820   31.6680    8.1340 C.2   142  ASP142      0.3671
     94  OD1       18.6850   32.8350    7.7080 O.co2 142  ASP142     -0.2456
     95  OD2       18.6990   30.6800    7.3230 O.co2 142  ASP142     -0.2456
     96  N         17.7460   29.6980   12.4380 N.am  143  SER143     -0.1950
     97  CA        18.1520   29.4240   13.8370 C.3   143  SER143      0.1924
     98  C         18.9790   28.1420   13.9820 C.2   143  SER143      0.2314
     99  O         18.5890   27.1610   13.3290 O.2   143  SER143     -0.2863
    100  CB        16.9990   29.1840   14.8340 C.3   143  SER143      0.2116
    101  OG        16.1600   30.3790   14.7190 O.3   143  SER143     -0.2180
    102  N         23.2570   30.5470   15.4340 N.3   158  MET158     -0.1230
    103  CA        22.1760   31.5560   15.2480 C.3   158  MET158      0.1702
    104  C         21.0750   31.4300   16.3260 C.2   158  MET158      0.2593
    105  O         20.4580   30.3570   16.4860 O.2   158  MET158     -0.2718
    106  CB        21.5620   31.3810   13.8130 C.3   158  MET158      0.0401
    107  CG        20.4460   32.3850   13.4970 C.3   158  MET158      0.0596
    108  SD        21.2340   33.8830   12.7070 S.3   158  MET158     -0.1393
    109  CE        20.8370   35.0410   13.9740 C.3   158  MET158      0.0692
    110  N         20.7870   32.5570   16.9830 N.am  159  SER159     -0.1938
    111  CA        19.7310   32.6100   17.9810 C.3   159  SER159      0.2055
    112  C         18.5550   33.4470   17.4200 C.2   159  SER159      0.2644
    113  O         17.4780   32.8260   17.3220 O.2   159  SER159     -0.2714
    114  CB        20.1530   33.3190   19.2740 C.3   159  SER159      0.2130
    115  OG        19.0250   33.3340   20.1990 O.3   159  SER159     -0.2179
    116  N         18.7650   34.7180   17.1160 N.am  160  GLY160     -0.1939
    117  CA        17.5360   35.4820   16.6590 C.3   160  GLY160      0.2014
    118  C         17.9660   36.8730   16.2220 C.2   160  GLY160      0.2639
    119  O         19.1850   37.1170   16.0060 O.2   160  GLY160     -0.2714
    120  N         17.0060   37.7560   15.9850 N.am  161  GLY161     -0.1939
    121  CA        17.3030   39.0880   15.4890 C.3   161  GLY161      0.2014
    122  C         16.0790   39.8310   14.9660 C.2   161  GLY161      0.2639
    123  O         14.9840   39.2900   15.1790 O.2   161  GLY161     -0.2714
    124  N         16.3640   40.9880   14.4000 N.am  162  ASN162     -0.1958
    125  CA        15.1820   41.8040   13.9630 C.3   162  ASN162      0.1819
    126  C         14.6320   41.4620   12.5860 C.2   162  ASN162      0.2618
    127  O         14.8680   42.2090   11.6360 O.2   162  ASN162     -0.2715
    128  CB        15.6580   43.2240   14.1590 C.3   162  ASN162      0.1195
    129  CG        16.7900   43.6060   13.2240 C.2   162  ASN162      0.2630
    130  OD1       17.6760   42.8830   12.7510 O.2   162  ASN162     -0.2716
    131  ND2       16.7010   44.9250   12.9270 N.am  162  ASN162     -0.0877
    132  N         13.8940   40.3820   12.5230 N.am  163  VAL163     -0.2030
    133  CA        13.2710   39.9470   11.2720 C.3   163  VAL163      0.1282
    134  C         12.2150   41.0000   10.9220 C.3   163  VAL163      0.2035
    135  O         11.5950   41.4310   11.9010 O.3   163  VAL163     -0.2185
    136  CB        12.6110   38.5650   11.4150 C.3   163  VAL163      0.0226
    137  CG1       13.6440   37.5310   11.8540 C.3   163  VAL163      0.0018
    138  CG2       11.4140   38.4950   12.2980 C.3   163  VAL163      0.0018
    139  N         20.3180   43.4290   13.3900 N.3   178  SER178     -0.1217
    140  CA        20.8470   42.9190   14.6800 C.3   178  SER178      0.1889
    141  C         20.6040   41.4200   14.5010 C.2   178  SER178      0.2288
    142  O         19.4010   41.0470   14.5230 O.2   178  SER178     -0.2866
    143  CB        20.0880   43.4560   15.8510 C.3   178  SER178      0.2089
    144  OG        20.5130   42.7020   16.9800 O.3   178  SER178     -0.2183
    145  N         21.7660   37.9000   16.1280 N.3   180  LEU180     -0.1245
    146  CA        22.4890   37.4510   17.3480 C.3   180  LEU180      0.1561
    147  C         22.7890   35.9480   17.3730 C.2   180  LEU180      0.2260
    148  O         21.9100   35.1840   16.9420 O.2   180  LEU180     -0.2867
    149  CB        21.5160   37.7940   18.4670 C.3   180  LEU180      0.0270
    150  CG        21.0350   39.2600   18.4860 C.3   180  LEU180      0.0019
    151  CD1       19.9230   39.4460   19.5180 C.3   180  LEU180      0.0001
    152  CD2       22.1860   40.2110   18.7520 C.3   180  LEU180      0.0001
@<TRIPOS>BOND
     1    95    93   ar
     2    94    93   ar
     3    61    62    1
     4    93    92    1
     5    76    75    2
     6    64    63    2
     7    63    69   am
     8    63    62    1
     9    70    69    1
    10    70    71    1
    11    62    65    1
    12    83    81    1
    13    71    73   am
    14    71    72    2
    15    73    74    1
    16    75    74    1
    17    75    84   am
    18    92    89    1
    19    85    86    1
    20    85    84    1
    21    81    82    1
    22    81    80    2
    23    65    66    1
    24    77    74    1
    25    77    78    1
    26    86    88   am
    27    86    87    2
    28    88    89    1
    29    89    90    1
    30    79    78    1
    31    79    80    1
    32    66    67    1
    33   134   133    1
    34   134   135    1
    35   133   136    1
    36   133   132    1
    37   136   137    1
    38   136   138    1
    39    90    91    2
    40    90    96   am
    41   127   126    2
    42    67    68    1
    43    96    97    1
    44   132   126   am
    45   126   125    1
    46   108   107    1
    47   108   109    1
    48   130   129    2
    49   131   129   am
    50   129   128    1
    51    99    98    2
    52   139   140    1
    53   107   106    1
    54   106   103    1
    55    97    98    1
    56    97   100    1
    57   125   128    1
    58   125   124    1
    59   124   122   am
    60   141   142    2
    61   141   140    1
    62   140   143    1
    63   101   100    1
    64   122   123    2
    65   122   121    1
    66   103   102    1
    67   103   104    1
    68   121   120    1
    69   143   144    1
    70   120   118   am
    71   119   118    2
    72   145   146    1
    73   118   117    1
    74   104   105    2
    75   104   110   am
    76   117   116    1
    77   148   147    2
    78   110   111    1
    79   116   112   am
    80   113   112    2
    81   146   147    1
    82   146   149    1
    83   112   111    1
    84    10     9   ar
    85    10     8   ar
    86   111   114    1
    87     9     7   ar
    88     8     6   ar
    89   149   150    1
    90   150   152    1
    91   150   151    1
    92   114   115    1
    93     7     6   ar
    94     6     5    1
    95    46    45    1
    96     4     3    1
    97     3     2    1
    98    44    45   ar
    99    44    42   ar
   100    45    43   ar
   101     5     2    1
   102    42    40   ar
   103     2     1    1
   104    43    41   ar
   105    40    41   ar
   106    40    39    1
   107    26    23    1
   108    60    58   ar
   109    59    58   ar
   110    39    36    1
   111    51    48    1
   112    58    57    1
   113    20    21   ar
   114    20    18   ar
   115    21    19   ar
   116    23    24    1
   117    23    22    1
   118    36    35    1
   119    36    37    1
   120    47    48    1
   121    47    37   am
   122    30    29    2
   123    18    16   ar
   124    19    17   ar
   125    27    24   am
   126    27    28    1
   127    48    49    1
   128    35    29   am
   129    29    28    1
   130    37    38    2
   131    24    25    2
   132    16    17   ar
   133    16    15    1
   134    57    56    1
   135    28    31    1
   136    15    12    1
   137    52    49   am
   138    52    53    1
   139    49    50    2
   140    31    32    1
   141    56    53    1
   142    53    54    1
   143    12    11    1
   144    12    13    1
   145    34    32   am
   146    32    33    2
   147    13    14    1
   148    54    55    2
