@<TRIPOS>MOLECULE
tmp/1p0hA00.pdb
 207 204 0 0 0
SMALL
GASTEIGER

@<TRIPOS>ATOM
      1  N          1.6780   14.1180   12.0470 N.3   168  ALA168     -0.1231
      2  CA         2.8030   14.7940   12.7610 C.3   168  ALA168      0.1694
      3  C          4.0960   14.8620   11.9490 C.2   168  ALA168      0.2592
      4  O          4.8330   15.8510   11.9720 O.2   168  ALA168     -0.2718
      5  CB         3.0810   14.0100   14.0630 C.3   168  ALA168      0.0304
      6  N          4.4270   13.7910   11.2430 N.am  169  PHE169     -0.1976
      7  CA         5.6240   13.6840   10.4450 C.3   169  PHE169      0.1639
      8  C          5.3720   13.8980    8.9770 C.2   169  PHE169      0.2290
      9  O          6.1670   13.4820    8.1720 O.2   169  PHE169     -0.2864
     10  CB         6.2860   12.2960   10.6800 C.3   169  PHE169      0.0560
     11  CG         6.9330   12.1510   12.0430 C.ar  169  PHE169     -0.0200
     12  CD1        8.2240   12.6290   12.2560 C.ar  169  PHE169     -0.0042
     13  CD2        6.2730   11.5160   13.0840 C.ar  169  PHE169     -0.0042
     14  CE1        8.8720   12.4510   13.5460 C.ar  169  PHE169     -0.0003
     15  CE2        6.9220   11.3540   14.3820 C.ar  169  PHE169     -0.0003
     16  CZ         8.2210   11.8230   14.5800 C.ar  169  PHE169     -0.0000
     17  N          8.0980   14.1960    6.3820 N.3   172  HIS172     -0.1241
     18  CA         9.3530   13.6420    6.8940 C.3   172  HIS172      0.1621
     19  C          9.7790   12.4880    6.0170 C.2   172  HIS172      0.2264
     20  O          9.0050   11.5400    5.7640 O.2   172  HIS172     -0.2867
     21  CB         9.2080   13.1880    8.3380 C.3   172  HIS172      0.0745
     22  CG        10.5160   12.8990    9.0070 C.ar  172  HIS172      0.0817
     23  ND1       11.2670   11.7810    8.7090 N.ar  172  HIS172     -0.2268
     24  CD2       11.2120   13.5840    9.9510 C.ar  172  HIS172      0.1154
     25  CE1       12.3670   11.7850    9.4400 C.ar  172  HIS172      0.1986
     26  NE2       12.3600   12.8660   10.2050 N.ar  172  HIS172     -0.2212
     27  N         13.5720    7.2810   23.9390 N.3   224  VAL224     -0.1231
     28  CA        12.4320    7.8680   23.3070 C.3   224  VAL224      0.1692
     29  C         12.6300    7.3010   21.8710 C.2   224  VAL224      0.2592
     30  O         13.6890    7.5070   21.2550 O.2   224  VAL224     -0.2718
     31  CB        12.5930    9.3880   23.2680 C.3   224  VAL224      0.0266
     32  CG1       11.5510    9.9640   22.2750 C.3   224  VAL224      0.0020
     33  CG2       12.4460    9.9430   24.6440 C.3   224  VAL224      0.0020
     34  N         11.7130    6.4820   21.3540 N.am  225  TYR225     -0.1962
     35  CA        11.9040    5.9440   20.0240 C.3   225  TYR225      0.1771
     36  C         11.1430    6.7960   18.9690 C.2   225  TYR225      0.2619
     37  O         11.7280    7.1750   17.9700 O.2   225  TYR225     -0.2715
     38  CB        11.4290    4.4760   20.0580 C.3   225  TYR225      0.0574
     39  CG        11.5440    3.7390   18.7260 C.ar  225  TYR225     -0.0198
     40  CD1       12.7700    3.4200   18.1910 C.ar  225  TYR225     -0.0009
     41  CD2       10.4070    3.3480   18.0500 C.ar  225  TYR225     -0.0009
     42  CE1       12.8410    2.7100   17.0080 C.ar  225  TYR225      0.0417
     43  CE2       10.4750    2.6360   16.8560 C.ar  225  TYR225      0.0417
     44  CZ        11.6940    2.3210   16.3610 C.ar  225  TYR225      0.1957
     45  OH        11.7960    1.5490   15.1860 O.3   225  TYR225     -0.2866
     46  N          9.8640    7.0890   19.2240 N.am  226  VAL226     -0.1963
     47  CA         9.0940    8.0230   18.3490 C.3   226  VAL226      0.1727
     48  C          8.1410    8.8090   19.2310 C.2   226  VAL226      0.2616
     49  O          7.4460    8.2550   20.0400 O.2   226  VAL226     -0.2715
     50  CB         8.2360    7.3210   17.2840 C.3   226  VAL226      0.0290
     51  CG1        7.5580    8.3910   16.3490 C.3   226  VAL226      0.0023
     52  CG2        9.1380    6.4690   16.3380 C.3   226  VAL226      0.0023
     53  N          8.1450   10.1530   19.0880 N.am  227  LEU227     -0.1963
     54  CA         7.1950   10.9910   19.8130 C.3   227  LEU227      0.1728
     55  C          6.4360   11.7800   18.7270 C.2   227  LEU227      0.2617
     56  O          7.0750   12.3600   17.8490 O.2   227  LEU227     -0.2715
     57  CB         7.9390   12.0040   20.7200 C.3   227  LEU227      0.0311
     58  CG         6.9990   13.0540   21.3940 C.3   227  LEU227      0.0022
     59  CD1        6.1010   12.4320   22.4990 C.3   227  LEU227      0.0001
     60  CD2        7.8590   14.1570   22.0200 C.3   227  LEU227      0.0001
     61  N          5.0980   11.7220   18.7660 N.am  228  GLY228     -0.1940
     62  CA         4.3480   12.5110   17.7680 C.3   228  GLY228      0.2014
     63  C          3.0220   12.9390   18.3050 C.2   228  GLY228      0.2638
     64  O          2.2940   12.2030   18.9820 O.2   228  GLY228     -0.2714
     65  N          2.6680   14.2030   18.0310 N.am  229  VAL229     -0.1977
     66  CA         1.3890   14.7380   18.4350 C.3   229  VAL229      0.1596
     67  C          0.6750   15.2420   17.1750 C.2   229  VAL229      0.2287
     68  O          1.2920   15.8710   16.3240 O.2   229  VAL229     -0.2864
     69  CB         1.5530   15.8950   19.4640 C.3   229  VAL229      0.0276
     70  CG1        0.1810   16.5880   19.7510 C.3   229  VAL229      0.0022
     71  CG2        2.1050   15.3540   20.7660 C.3   229  VAL229      0.0022
     72  N         -1.5160   19.8620   18.7740 N.3   234  GLN234     -0.1231
     73  CA        -0.1700   20.4010   19.1950 C.3   234  GLN234      0.1698
     74  C         -0.3150   21.7490   19.9420 C.2   234  GLN234      0.2592
     75  O         -1.4160   22.3780   19.9450 O.2   234  GLN234     -0.2718
     76  CB         0.6570   20.6440   17.9610 C.3   234  GLN234      0.0381
     77  CG         1.3360   19.3080   17.4420 C.3   234  GLN234      0.0905
     78  CD         2.0830   19.4700   16.1450 C.2   234  GLN234      0.2608
     79  OE1        2.1110   20.5660   15.5250 O.2   234  GLN234     -0.2717
     80  NE2        2.6530   18.3920   15.6730 N.am  234  GLN234     -0.0878
     81  N          0.7830   22.1480   20.6110 N.am  235  ARG235     -0.1966
     82  CA         0.8400   23.4320   21.3130 C.3   235  ARG235      0.1729
     83  C         -0.1970   23.5940   22.4230 C.2   235  ARG235      0.2616
     84  O         -0.7040   24.7460   22.7110 O.2   235  ARG235     -0.2715
     85  CB         0.7660   24.5590   20.2710 C.3   235  ARG235      0.0348
     86  CG         2.0950   24.6520   19.4920 C.3   235  ARG235      0.0492
     87  CD         2.0670   25.7710   18.3860 C.3   235  ARG235      0.2205
     88  NE         1.3700   25.1920   17.2260 N.pl3 235  ARG235     -0.0865
     89  CZ         0.6880   25.9180   16.3530 C.cat 235  ARG235      0.5346
     90  NH1        0.6010   27.2370   16.5350 N.pl3 235  ARG235      0.1354
     91  NH2        0.1180   25.3610   15.2760 N.pl3 235  ARG235      0.1354
     92  N         -0.5160   22.4500   23.0580 N.am  236  ARG236     -0.1963
     93  CA        -1.4580   22.3810   24.1760 C.3   236  ARG236      0.1729
     94  C         -0.8180   21.6400   25.3900 C.2   236  ARG236      0.2617
     95  O         -1.5090   21.3460   26.3780 O.2   236  ARG236     -0.2715
     96  CB        -2.7850   21.6780   23.7450 C.3   236  ARG236      0.0348
     97  CG        -3.5910   22.4530   22.6270 C.3   236  ARG236      0.0492
     98  CD        -4.5920   21.4830   22.0730 C.3   236  ARG236      0.2205
     99  NE        -5.5690   22.0450   21.1370 N.pl3 236  ARG236     -0.0865
    100  CZ        -5.3450   22.3600   19.8680 C.cat 236  ARG236      0.5346
    101  NH1       -4.1610   22.2320   19.2820 N.pl3 236  ARG236      0.1354
    102  NH2       -6.3800   22.7760   19.1070 N.pl3 236  ARG236      0.1354
    103  N          0.4780   21.3360   25.3230 N.am  237  GLY237     -0.1940
    104  CA         1.1940   20.6830   26.4050 C.3   237  GLY237      0.2014
    105  C          1.2530   19.1500   26.2690 C.2   237  GLY237      0.2639
    106  O          1.8750   18.5150   27.0720 O.2   237  GLY237     -0.2714
    107  N          0.6860   18.6130   25.2340 N.am  238  LEU238     -0.1963
    108  CA         0.6570   17.1550   25.1570 C.3   238  LEU238      0.1728
    109  C          1.9790   16.4910   24.8910 C.2   238  LEU238      0.2617
    110  O          2.2570   15.4160   25.4950 O.2   238  LEU238     -0.2715
    111  CB        -0.3760   16.7180   24.1120 C.3   238  LEU238      0.0311
    112  CG        -1.8250   17.1420   24.3220 C.3   238  LEU238      0.0022
    113  CD1       -2.5780   16.5990   23.1000 C.3   238  LEU238      0.0001
    114  CD2       -2.4550   16.5290   25.6170 C.3   238  LEU238      0.0001
    115  N          2.8340   17.1080   24.0520 N.am  239  GLY239     -0.1940
    116  CA         4.1240   16.5160   23.7560 C.3   239  GLY239      0.2014
    117  C          4.9590   16.4170   25.0280 C.2   239  GLY239      0.2638
    118  O          5.6120   15.3860   25.2750 O.2   239  GLY239     -0.2714
    119  N          4.9810   17.4880   25.8020 N.am  240  GLN240     -0.1977
    120  CA         5.7590   17.4250   27.0440 C.3   240  GLN240      0.1601
    121  C          5.1970   16.3220   27.9780 C.2   240  GLN240      0.2287
    122  O          5.9730   15.5450   28.5590 O.2   240  GLN240     -0.2864
    123  CB         5.7490   18.7900   27.8000 C.3   240  GLN240      0.0394
    124  CG         6.7440   18.7770   28.8930 C.3   240  GLN240      0.0908
    125  CD         6.4670   19.7880   29.9920 C.2   240  GLN240      0.2608
    126  OE1        5.3490   19.8910   30.5080 O.2   240  GLN240     -0.2717
    127  NE2        7.5180   20.5240   30.3980 N.am  240  GLN240     -0.0878
    128  N         17.1560   10.9000   20.2130 N.3   262  TYR262     -0.1227
    129  CA        17.8500   11.4980   19.0370 C.3   262  TYR262      0.1736
    130  C         16.9180   12.5400   18.4650 C.2   262  TYR262      0.2595
    131  O         15.7480   12.2510   18.1750 O.2   262  TYR262     -0.2718
    132  CB        18.1850   10.4580   17.9430 C.3   262  TYR262      0.0548
    133  CG        18.9700    9.2890   18.4930 C.ar  262  TYR262     -0.0200
    134  CD1       20.3330    9.3580   18.6390 C.ar  262  TYR262     -0.0009
    135  CD2       18.3000    8.1490   18.9160 C.ar  262  TYR262     -0.0009
    136  CE1       21.0360    8.3120   19.1800 C.ar  262  TYR262      0.0417
    137  CE2       18.9770    7.1060   19.4650 C.ar  262  TYR262      0.0417
    138  CZ        20.3400    7.1920   19.5750 C.ar  262  TYR262      0.1957
    139  OH        21.0140    6.0720   20.0370 O.3   262  TYR262     -0.2866
    140  N         17.4530   13.7520   18.2640 N.am  263  VAL263     -0.1980
    141  CA        16.6030   14.8310   17.7580 C.3   263  VAL263      0.1595
    142  C         17.3910   15.6900   16.7550 C.2   263  VAL263      0.2287
    143  O         18.5480   15.9930   17.0000 O.2   263  VAL263     -0.2864
    144  CB        16.0920   15.6950   18.9210 C.3   263  VAL263      0.0276
    145  CG1       17.2680   16.4310   19.6400 C.3   263  VAL263      0.0022
    146  CG2       15.0920   16.8200   18.3650 C.3   263  VAL263      0.0022
    147  N         14.9230   20.9440   14.9340 N.3   267  ASN267     -0.1225
    148  CA        13.5400   20.6460   15.2750 C.3   267  ASN267      0.1785
    149  C         13.2760   21.4250   16.5500 C.2   267  ASN267      0.2597
    150  O         13.3980   20.9240   17.6920 O.2   267  ASN267     -0.2718
    151  CB        13.3780   19.1390   15.4790 C.3   267  ASN267      0.1169
    152  CG        11.9350   18.7460   15.6600 C.2   267  ASN267      0.2627
    153  OD1       11.1170   19.5650   16.0370 O.2   267  ASN267     -0.2716
    154  ND2       11.6260   17.4600   15.4100 N.am  267  ASN267     -0.0877
    155  N         12.8190   22.6700   16.3530 N.am  268  VAL268     -0.1966
    156  CA        12.6920   23.5500   17.4960 C.3   268  VAL268      0.1727
    157  C         11.7050   23.0360   18.5290 C.2   268  VAL268      0.2616
    158  O         11.9820   23.0570   19.7530 O.2   268  VAL268     -0.2715
    159  CB        12.2820   24.9650   17.0480 C.3   268  VAL268      0.0290
    160  CG1       11.8620   25.8170   18.2820 C.3   268  VAL268      0.0023
    161  CG2       13.4990   25.6530   16.3080 C.3   268  VAL268      0.0023
    162  N         10.5520   22.5780   18.0600 N.am  269  ALA269     -0.1963
    163  CA         9.5740   22.1140   19.0130 C.3   269  ALA269      0.1728
    164  C         10.0850   20.9260   19.8160 C.2   269  ALA269      0.2616
    165  O          9.8700   20.8590   21.0170 O.2   269  ALA269     -0.2715
    166  CB         8.2850   21.6670   18.2730 C.3   269  ALA269      0.0334
    167  N         10.7190   19.9790   19.1500 N.am  270  ALA270     -0.1977
    168  CA        11.1280   18.7830   19.9460 C.3   270  ALA270      0.1597
    169  C         12.3000   19.1550   20.8880 C.2   270  ALA270      0.2287
    170  O         12.3510   18.7140   22.0420 O.2   270  ALA270     -0.2864
    171  CB        11.5510   17.6360   18.9810 C.3   270  ALA270      0.0319
    172  N         12.8440   21.9680   22.2630 N.3   272  ARG272     -0.1231
    173  CA        12.2810   22.6340   23.4410 C.3   272  ARG272      0.1694
    174  C         11.6030   21.6750   24.4400 C.2   272  ARG272      0.2593
    175  O         11.7620   21.7970   25.6670 O.2   272  ARG272     -0.2718
    176  CB        11.2580   23.6900   23.0150 C.3   272  ARG272      0.0321
    177  CG        11.9260   24.9430   22.4090 C.3   272  ARG272      0.0489
    178  CD        10.8280   25.8940   21.9120 C.3   272  ARG272      0.2205
    179  NE        11.4460   27.1870   21.5470 N.pl3 272  ARG272     -0.0865
    180  CZ        10.7890   28.1770   20.9450 C.cat 272  ARG272      0.5346
    181  NH1        9.5200   28.0400   20.5830 N.pl3 272  ARG272      0.1354
    182  NH2       11.4300   29.3220   20.6840 N.pl3 272  ARG272      0.1354
    183  N         10.8360   20.7530   23.8970 N.am  273  THR273     -0.1939
    184  CA        10.1390   19.7980   24.7180 C.3   273  THR273      0.2028
    185  C         11.1420   19.0380   25.5770 C.2   273  THR273      0.2642
    186  O         11.0240   18.9420   26.7850 O.2   273  THR273     -0.2714
    187  CB         9.4340   18.7290   23.8410 C.3   273  THR273      0.1808
    188  OG1        8.5110   19.4010   22.9850 O.3   273  THR273     -0.2208
    189  CG2        8.6270   17.7070   24.7220 C.3   273  THR273      0.0379
    190  N         12.1650   18.5600   24.9250 N.am  274  TYR274     -0.1973
    191  CA        13.1570   17.7400   25.6640 C.3   274  TYR274      0.1639
    192  C         13.9750   18.5700   26.6460 C.2   274  TYR274      0.2290
    193  O         14.2380   18.1330   27.7720 O.2   274  TYR274     -0.2864
    194  CB        14.0800   17.0090   24.6670 C.3   274  TYR274      0.0560
    195  CG        13.2810   16.1730   23.6910 C.ar  274  TYR274     -0.0198
    196  CD1       12.1340   15.4730   24.1090 C.ar  274  TYR274     -0.0009
    197  CD2       13.7450   16.0060   22.3860 C.ar  274  TYR274     -0.0009
    198  CE1       11.4760   14.6100   23.2230 C.ar  274  TYR274      0.0417
    199  CE2       13.1060   15.1460   21.5030 C.ar  274  TYR274      0.0417
    200  CZ        11.9710   14.4480   21.9480 C.ar  274  TYR274      0.1957
    201  OH        11.3670   13.5080   21.0640 O.3   274  TYR274     -0.2866
    202  N         12.9400   21.0800   28.3120 N.3   276  SER276     -0.1217
    203  CA        12.1080   21.3910   29.4590 C.3   276  SER276      0.1889
    204  C         12.0300   20.2760   30.4470 C.2   276  SER276      0.2288
    205  O         11.6620   20.5180   31.6140 O.2   276  SER276     -0.2866
    206  CB        10.6990   21.7490   28.9660 C.3   276  SER276      0.2089
    207  OG         9.9470   20.5630   28.6320 O.3   276  SER276     -0.2183
@<TRIPOS>BOND
     1    20    19    2
     2    19    18    1
     3    17    18    1
     4    18    21    1
     5     9     8    2
     6    21    22    1
     7    23    22   ar
     8    23    25   ar
     9     8     7    1
    10    22    24   ar
    11    25    26   ar
    12    24    26   ar
    13     7    10    1
    14     7     6    1
    15    10    11    1
    16     6     3   am
    17     3     4    2
    18     3     2    1
    19    11    12   ar
    20    11    13   ar
    21     1     2    1
    22    12    14   ar
    23     2     5    1
    24    13    15   ar
    25    14    16   ar
    26    15    16   ar
    27   147   148    1
    28    45    44    1
    29   148   151    1
    30   148   149    1
    31    91    89    1
    32   154   152   am
    33   151   152    1
    34    79    78    2
    35   152   153    2
    36    80    78   am
    37    78    77    1
    38   161   159    1
    39    68    67    2
    40    52    50    1
    41    51    50    1
    42   155   149   am
    43   155   156    1
    44    89    90    1
    45    89    88    2
    46    44    43   ar
    47    44    42   ar
    48   149   150    2
    49   142   143    2
    50   142   141    1
    51    43    41   ar
    52    42    40   ar
    53   159   156    1
    54   159   160    1
    55    67    66    1
    56    88    87    1
    57    50    47    1
    58    77    76    1
    59   156   157    1
    60   141   140    1
    61   141   144    1
    62    62    63    1
    63    62    61    1
    64    56    55    2
    65   132   133    1
    66   132   129    1
    67    76    73    1
    68    37    36    2
    69    65    63   am
    70    65    66    1
    71    41    39   ar
    72   162   157   am
    73   162   163    1
    74   131   130    2
    75    40    39   ar
    76   140   130   am
    77   166   163    1
    78    63    64    2
    79    47    46    1
    80    47    48    1
    81   146   144    1
    82    87    86    1
    83    66    69    1
    84   130   129    1
    85   133   134   ar
    86   133   135   ar
    87   157   158    2
    88   134   136   ar
    89    39    38    1
    90    55    61   am
    91    55    54    1
    92    72    73    1
    93   135   137   ar
    94   144   145    1
    95    36    46   am
    96    36    35    1
    97   171   168    1
    98   163   164    1
    99   129   128    1
   100    53    48   am
   101    53    54    1
   102   102   100    1
   103   167   164   am
   104   167   168    1
   105   136   138   ar
   106    73    74    1
   107    48    49    2
   108   101   100    1
   109    69    70    1
   110    69    71    1
   111   137   138   ar
   112    86    85    1
   113   138   139    1
   114    54    57    1
   115   164   165    2
   116   100    99    2
   117    74    75    2
   118    74    81   am
   119   168   169    1
   120    35    38    1
   121    35    34    1
   122    85    82    1
   123   181   180    1
   124    81    82    1
   125   182   180    1
   126    57    58    1
   127   169   170    2
   128   180   179    2
   129   201   200    1
   130    99    98    1
   131    30    29    2
   132    82    83    1
   133    34    29   am
   134    58    60    1
   135    58    59    1
   136   199   200   ar
   137   199   197   ar
   138   179   178    1
   139    29    28    1
   140   178   177    1
   141   200   198   ar
   142    98    97    1
   143   172   173    1
   144    32    31    1
   145   197   195   ar
   146   177   176    1
   147    83    84    2
   148    83    92   am
   149    97    96    1
   150   188   187    1
   151   176   173    1
   152    92    93    1
   153   113   112    1
   154   198   196   ar
   155    31    28    1
   156    31    33    1
   157    28    27    1
   158   173   174    1
   159   195   196   ar
   160   195   194    1
   161    96    93    1
   162   116   115    1
   163   116   117    1
   164   187   184    1
   165   187   189    1
   166   183   174   am
   167   183   184    1
   168   115   109   am
   169   111   112    1
   170   111   108    1
   171    93    94    1
   172   112   114    1
   173   174   175    2
   174   194   191    1
   175   184   185    1
   176   109   108    1
   177   109   110    2
   178   190   185   am
   179   190   191    1
   180   117   118    2
   181   117   119   am
   182   108   107    1
   183   107   105   am
   184   103    94   am
   185   103   104    1
   186    94    95    2
   187   185   186    2
   188   191   192    1
   189   119   120    1
   190   105   104    1
   191   105   106    2
   192   192   193    2
   193   120   123    1
   194   120   121    1
   195   123   124    1
   196   121   122    2
   197   202   203    1
   198   207   206    1
   199   124   125    1
   200   206   203    1
   201   203   204    1
   202   125   127   am
   203   125   126    2
   204   204   205    2
