@<TRIPOS>MOLECULE
tmp/1p0iA01.pdb
 80 79 0 0 0
SMALL
GASTEIGER

@<TRIPOS>ATOM
      1  N        136.6240  103.4970   50.0850 N.3   331  ALA331     -0.1231
      2  CA       136.9480  103.3040   51.5000 C.3   331  ALA331      0.1679
      3  C        136.0460  102.2170   52.0940 C.2   331  ALA331      0.2434
      4  O        134.8210  102.2580   51.9560 O.2   331  ALA331     -0.2733
      5  CB       136.7960  104.6230   52.2790 C.3   331  ALA331      0.0304
      6  N        136.6390  101.2340   52.7830 N.am  332  PRO332     -0.2718
      7  CA       135.8190  100.1630   53.3650 C.3   332  PRO332      0.1535
      8  C        134.8350  100.6330   54.4150 C.2   332  PRO332      0.2599
      9  O        135.1160  101.5360   55.2050 O.2   332  PRO332     -0.2715
     10  CB       136.8580   99.1800   53.9030 C.3   332  PRO332      0.0310
     11  CG       138.0190  100.0930   54.2620 C.3   332  PRO332      0.0237
     12  CD       138.0680  101.0380   53.0760 C.3   332  PRO332      0.0939
     13  N        133.6520  100.0240   54.3960 N.am  333  GLY333     -0.1941
     14  CA       132.6030  100.3660   55.3360 C.3   333  GLY333      0.2014
     15  C        131.7660  101.5660   54.9370 C.2   333  GLY333      0.2639
     16  O        130.8190  101.9170   55.6450 O.2   333  GLY333     -0.2714
     17  N        132.0880  102.2080   53.8210 N.am  334  PHE334     -0.1959
     18  CA       131.3110  103.3850   53.4280 C.3   334  PHE334      0.1771
     19  C        130.2700  103.0270   52.3690 C.2   334  PHE334      0.2620
     20  O        130.4750  102.1050   51.5840 O.2   334  PHE334     -0.2715
     21  CB       132.2260  104.5080   52.8670 C.3   334  PHE334      0.0574
     22  CG       132.9940  105.2540   53.9280 C.ar  334  PHE334     -0.0200
     23  CD1      134.1980  104.7520   54.4230 C.ar  334  PHE334     -0.0042
     24  CD2      132.4610  106.4060   54.4990 C.ar  334  PHE334     -0.0042
     25  CE1      134.8640  105.3810   55.4830 C.ar  334  PHE334     -0.0003
     26  CE2      133.1170  107.0400   55.5560 C.ar  334  PHE334     -0.0003
     27  CZ       134.3210  106.5210   56.0460 C.ar  334  PHE334     -0.0000
     28  N        129.1660  103.7590   52.3650 N.am  335  SER335     -0.1950
     29  CA       128.1100  103.5740   51.3670 C.3   335  SER335      0.1924
     30  C        127.2010  104.7880   51.3720 C.2   335  SER335      0.2314
     31  O        126.8680  105.3410   52.4250 O.2   335  SER335     -0.2863
     32  CB       127.2790  102.2990   51.6510 C.3   335  SER335      0.2116
     33  OG       126.1530  102.1990   50.7810 O.3   335  SER335     -0.2180
     34  N        124.3010  104.5680   50.7740 N.3   337  ASP337     -0.1225
     35  CA       123.0040  104.0530   51.2260 C.3   337  ASP337      0.1805
     36  C        122.7980  103.6280   52.6880 C.2   337  ASP337      0.2598
     37  O        121.8410  102.8990   52.9720 O.2   337  ASP337     -0.2718
     38  CB       122.5560  102.9070   50.3210 C.3   337  ASP337      0.1424
     39  CG       122.4550  103.3330   48.8800 C.2   337  ASP337      0.3668
     40  OD1      123.1240  102.7180   48.0530 O.co2 337  ASP337     -0.2456
     41  OD2      121.7300  104.3050   48.5880 O.co2 337  ASP337     -0.2456
     42  N        123.6960  104.0410   53.5880 N.am  338  ASN338     -0.1960
     43  CA       123.5650  103.8090   55.0500 C.3   338  ASN338      0.1819
     44  C        124.4310  104.8790   55.7200 C.2   338  ASN338      0.2621
     45  O        125.1570  105.6040   55.0200 O.2   338  ASN338     -0.2715
     46  CB       123.9460  102.3720   55.5120 C.3   338  ASN338      0.1195
     47  CG       125.3840  102.0020   55.2320 C.2   338  ASN338      0.2630
     48  OD1      126.2960  102.8250   55.3270 O.2   338  ASN338     -0.2716
     49  ND2      125.5750  100.7310   54.9000 N.am  338  ASN338     -0.0877
     50  N        124.3440  105.0040   57.0450 N.am  339  ASN339     -0.1958
     51  CA       125.0710  106.0560   57.7600 C.3   339  ASN339      0.1819
     52  C        126.5870  105.9040   57.8370 C.2   339  ASN339      0.2622
     53  O        127.2570  106.7230   58.4350 O.2   339  ASN339     -0.2715
     54  CB       124.5000  106.2360   59.1670 C.3   339  ASN339      0.1195
     55  CG       124.6050  104.9710   59.9990 C.2   339  ASN339      0.2630
     56  OD1      125.3430  104.0430   59.6420 O.2   339  ASN339     -0.2716
     57  ND2      123.8790  104.9240   61.1090 N.am  339  ASN339     -0.0877
     58  N        127.1130  104.8450   57.2400 N.am  340  SER340     -0.1936
     59  CA       128.5470  104.6060   57.1700 C.3   340  SER340      0.2055
     60  C        129.3890  104.6940   58.4510 C.2   340  SER340      0.2642
     61  O        130.5440  105.1090   58.4040 O.2   340  SER340     -0.2714
     62  CB       129.1540  105.5130   56.0860 C.3   340  SER340      0.2130
     63  OG       128.6830  105.1230   54.7950 O.3   340  SER340     -0.2179
     64  N        128.8160  104.2880   59.5810 N.am  341  ILE341     -0.1977
     65  CA       129.5480  104.2560   60.8390 C.3   341  ILE341      0.1596
     66  C        130.7060  103.2720   60.6630 C.2   341  ILE341      0.2287
     67  O        130.4910  102.0810   60.4810 O.2   341  ILE341     -0.2864
     68  CB       128.6460  103.7560   61.9870 C.3   341  ILE341      0.0276
     69  CG1      127.5140  104.7570   62.2350 C.3   341  ILE341      0.0022
     70  CG2      129.4650  103.5660   63.2550 C.3   341  ILE341      0.0022
     71  CD1      127.9880  106.1730   62.4830 C.3   341  ILE341      0.0001
     72  N        138.6330  100.1040   60.1730 N.3   346  GLU346     -0.1245
     73  CA       138.2070  100.5480   58.8540 C.3   346  GLU346      0.1567
     74  C        138.8590  101.8870   58.5410 C.2   346  GLU346      0.2260
     75  O        139.3630  102.0940   57.4360 O.2   346  GLU346     -0.2867
     76  CB       136.6800  100.6270   58.8070 C.3   346  GLU346      0.0388
     77  CG       136.0500   99.2480   58.5910 C.3   346  GLU346      0.1160
     78  CD       134.6020   99.1940   59.0010 C.2   346  GLU346      0.3649
     79  OE1      133.8850   98.3390   58.4620 O.co2 346  GLU346     -0.2457
     80  OE2      134.1900   99.9900   59.8670 O.co2 346  GLU346     -0.2457
@<TRIPOS>BOND
     1    40    39   ar
     2    41    39   ar
     3    39    38    1
     4     1     2    1
     5    38    35    1
     6    34    35    1
     7    33    32    1
     8    35    36    1
     9    29    30    1
    10    29    32    1
    11    29    28    1
    12    30    31    2
    13     2     3    1
    14     2     5    1
    15    20    19    2
    16     4     3    2
    17     3     6   am
    18    28    19   am
    19    19    18    1
    20    36    37    2
    21    36    42   am
    22     6    12    1
    23     6     7    1
    24    21    18    1
    25    21    22    1
    26    12    11    1
    27     7    10    1
    28     7     8    1
    29    18    17    1
    30    42    43    1
    31    17    15   am
    32    10    11    1
    33    22    23   ar
    34    22    24   ar
    35    13     8   am
    36    13    14    1
    37     8     9    2
    38    23    25   ar
    39    24    26   ar
    40    63    62    1
    41    49    47   am
    42    15    14    1
    43    15    16    2
    44    45    44    2
    45    43    46    1
    46    43    44    1
    47    47    48    2
    48    47    46    1
    49    25    27   ar
    50    26    27   ar
    51    44    50   am
    52    62    59    1
    53    50    51    1
    54    59    58    1
    55    59    60    1
    56    58    52   am
    57    75    74    2
    58    51    52    1
    59    51    54    1
    60    52    53    2
    61    61    60    2
    62    60    64   am
    63    79    78   ar
    64    74    73    1
    65    77    76    1
    66    77    78    1
    67    76    73    1
    68    73    72    1
    69    78    80   ar
    70    54    55    1
    71    64    65    1
    72    56    55    2
    73    55    57   am
    74    67    66    2
    75    66    65    1
    76    65    68    1
    77    68    69    1
    78    68    70    1
    79    69    71    1
