@<TRIPOS>MOLECULE
tmp/1p0iA04.pdb
 115 110 0 0 0
SMALL
GASTEIGER

@<TRIPOS>ATOM
      1  N        132.5320  122.9910   53.1810 N.3   320  LYS320     -0.1231
      2  CA       132.7090  122.3870   54.4920 C.3   320  LYS320      0.1693
      3  C        133.0720  120.9180   54.4810 C.2   320  LYS320      0.2592
      4  O        133.8290  120.4720   55.3340 O.2   320  LYS320     -0.2718
      5  CB       131.4320  122.6090   55.3080 C.3   320  LYS320      0.0285
      6  CG       131.4010  122.0230   56.7120 C.3   320  LYS320      0.0035
      7  CD       130.0770  122.4060   57.3770 C.3   320  LYS320      0.0206
      8  CE       129.9070  121.7940   58.7830 C.3   320  LYS320      0.1093
      9  NZ       130.2220  120.3470   58.8690 N.3   320  LYS320     -0.1314
     10  N        132.5150  120.1450   53.5480 N.am  321  ASP321     -0.1974
     11  CA       132.8240  118.7230   53.5120 C.3   321  ASP321      0.1709
     12  C        133.4200  118.2560   52.1810 C.2   321  ASP321      0.2293
     13  O        132.9310  117.3100   51.5460 O.2   321  ASP321     -0.2864
     14  CB       131.5640  117.8910   53.8730 C.3   321  ASP321      0.1436
     15  CG       131.0090  118.2480   55.2570 C.2   321  ASP321      0.3671
     16  OD1      131.5980  117.8140   56.2720 O.co2 321  ASP321     -0.2456
     17  OD2      129.9990  118.9790   55.3310 O.co2 321  ASP321     -0.2456
     18  N        137.2960  114.4350   56.8970 N.3   386  ASP386     -0.1239
     19  CA       138.0880  115.6380   57.1250 C.3   386  ASP386      0.1674
     20  C        139.5240  115.4150   56.6860 C.2   386  ASP386      0.2266
     21  O        140.1500  116.2980   56.0850 O.2   386  ASP386     -0.2867
     22  CB       138.0170  116.0610   58.5820 C.3   386  ASP386      0.1410
     23  CG       136.6560  116.6530   58.9320 C.2   386  ASP386      0.3668
     24  OD1      136.1270  117.4860   58.1430 O.co2 386  ASP386     -0.2456
     25  OD2      136.1190  116.3020   59.9970 O.co2 386  ASP386     -0.2456
     26  N        134.1290  130.2170   52.9300 N.3   415  TYR415     -0.1241
     27  CA       133.9680  128.8670   53.4380 C.3   415  TYR415      0.1605
     28  C        132.4760  128.6070   53.1590 C.2   415  TYR415      0.2264
     29  O        131.5920  129.1800   53.8210 O.2   415  TYR415     -0.2867
     30  CB       134.2410  128.8380   54.9330 C.3   415  TYR415      0.0534
     31  CG       134.1860  127.4690   55.5190 C.ar  415  TYR415     -0.0201
     32  CD1      134.9990  126.4460   55.0180 C.ar  415  TYR415     -0.0009
     33  CD2      133.3820  127.1990   56.6390 C.ar  415  TYR415     -0.0009
     34  CE1      135.0260  125.1790   55.6290 C.ar  415  TYR415      0.0417
     35  CE2      133.3970  125.9540   57.2410 C.ar  415  TYR415      0.0417
     36  CZ       134.2200  124.9520   56.7410 C.ar  415  TYR415      0.1957
     37  OH       134.2320  123.7310   57.3710 O.3   415  TYR415     -0.2866
     38  N        129.1770  126.6810   53.3910 N.3   417  GLU417     -0.1245
     39  CA       128.6460  125.6360   54.2710 C.3   417  GLU417      0.1567
     40  C        127.1510  125.3440   54.1610 C.2   417  GLU417      0.2260
     41  O        126.5400  124.8860   55.1150 O.2   417  GLU417     -0.2867
     42  CB       129.0280  125.9590   55.7300 C.3   417  GLU417      0.0388
     43  CG       128.6200  127.3450   56.1480 C.3   417  GLU417      0.1160
     44  CD       129.1680  127.7940   57.5030 C.2   417  GLU417      0.3649
     45  OE1      130.1050  127.1850   58.0490 O.co2 417  GLU417     -0.2457
     46  OE2      128.6570  128.8040   58.0160 O.co2 417  GLU417     -0.2457
     47  N        138.0610  135.2900   56.7330 N.3   494  TYR494     -0.1241
     48  CA       137.3180  134.6840   55.6260 C.3   494  TYR494      0.1605
     49  C        135.8190  134.8280   55.8960 C.2   494  TYR494      0.2264
     50  O        135.3920  134.9990   57.0500 O.2   494  TYR494     -0.2867
     51  CB       137.6830  133.2100   55.4400 C.3   494  TYR494      0.0534
     52  CG       137.3140  132.2860   56.6140 C.ar  494  TYR494     -0.0201
     53  CD1      138.1640  132.1330   57.7060 C.ar  494  TYR494     -0.0009
     54  CD2      136.1330  131.5430   56.5990 C.ar  494  TYR494     -0.0009
     55  CE1      137.8510  131.2220   58.7850 C.ar  494  TYR494      0.0417
     56  CE2      135.8000  130.6610   57.6470 C.ar  494  TYR494      0.0417
     57  CZ       136.6790  130.5080   58.7470 C.ar  494  TYR494      0.1957
     58  OH       136.3220  129.6840   59.8010 O.3   494  TYR494     -0.2866
     59  N        135.0640  135.1150   59.9940 N.3   505  MET505     -0.1230
     60  CA       135.8150  134.2530   60.8910 C.3   505  MET505      0.1702
     61  C        137.3050  134.3230   60.5470 C.2   505  MET505      0.2593
     62  O        137.6900  134.9510   59.5620 O.2   505  MET505     -0.2718
     63  CB       135.2870  132.8170   60.8010 C.3   505  MET505      0.0401
     64  CG       133.7760  132.7530   60.9940 C.3   505  MET505      0.0596
     65  SD       133.1460  131.1470   61.4700 S.3   505  MET505     -0.1393
     66  CE       133.7730  131.0840   63.1770 C.3   505  MET505      0.0692
     67  N        138.1350  133.6900   61.3670 N.am  506  THR506     -0.1939
     68  CA       139.5900  133.7380   61.1670 C.3   506  THR506      0.2028
     69  C        140.3090  132.4090   61.2690 C.2   506  THR506      0.2642
     70  O        139.8920  131.5340   62.0390 O.2   506  THR506     -0.2714
     71  CB       140.2580  134.7060   62.2390 C.3   506  THR506      0.1808
     72  OG1      139.8190  134.3350   63.5640 O.3   506  THR506     -0.2208
     73  CG2      139.8580  136.1620   61.9940 C.3   506  THR506      0.0379
     74  N        141.3770  132.2620   60.4780 N.am  507  LYS507     -0.1963
     75  CA       142.2280  131.0810   60.5370 C.3   507  LYS507      0.1728
     76  C        141.5120  129.7560   60.4500 C.2   507  LYS507      0.2616
     77  O        141.5550  128.9180   61.3630 O.2   507  LYS507     -0.2715
     78  CB       143.0870  131.1450   61.8330 C.3   507  LYS507      0.0311
     79  CG       143.9800  132.3880   61.9010 C.3   507  LYS507      0.0038
     80  CD       144.7710  132.5180   63.2140 C.3   507  LYS507      0.0206
     81  CE       145.6370  133.7700   63.1820 C.3   507  LYS507      0.1093
     82  NZ       146.4500  134.0040   64.4220 N.3   507  LYS507     -0.1314
     83  N        140.8370  129.5660   59.3300 N.am  508  LEU508     -0.1963
     84  CA       140.1260  128.3320   59.0570 C.3   508  LEU508      0.1728
     85  C        141.0250  127.0860   59.2270 C.2   508  LEU508      0.2616
     86  O        142.1110  127.0360   58.6890 O.2   508  LEU508     -0.2715
     87  CB       139.6110  128.3750   57.6110 C.3   508  LEU508      0.0311
     88  CG       138.8510  127.1340   57.1460 C.3   508  LEU508      0.0022
     89  CD1      137.5660  126.9650   58.0040 C.3   508  LEU508      0.0001
     90  CD2      138.4570  127.3160   55.6280 C.3   508  LEU508      0.0001
     91  N        140.5700  126.0880   59.9710 N.am  509  ARG509     -0.1963
     92  CA       141.3390  124.8300   60.1420 C.3   509  ARG509      0.1729
     93  C        142.7890  125.0710   60.5000 C.2   509  ARG509      0.2616
     94  O        143.6730  124.3760   59.9890 O.2   509  ARG509     -0.2715
     95  CB       141.3450  124.0160   58.8380 C.3   509  ARG509      0.0348
     96  CG       139.9960  123.5810   58.2750 C.3   509  ARG509      0.0492
     97  CD       139.5410  122.2130   58.8220 C.3   509  ARG509      0.2205
     98  NE       138.4710  121.6300   58.0160 N.pl3 509  ARG509     -0.0865
     99  CZ       137.2740  122.1900   57.8450 C.cat 509  ARG509      0.5346
    100  NH1      136.3360  121.6020   57.0820 N.pl3 509  ARG509      0.1354
    101  NH2      137.0010  123.3310   58.4620 N.pl3 509  ARG509      0.1354
    102  N        143.0550  126.0460   61.3620 N.am  510  ALA510     -0.1977
    103  CA       144.4340  126.3610   61.7050 C.3   510  ALA510      0.1597
    104  C        145.2520  125.1350   62.1200 C.2   510  ALA510      0.2287
    105  O        146.3050  124.8170   61.5680 O.2   510  ALA510     -0.2864
    106  CB       144.4650  127.4290   62.8510 C.3   510  ALA510      0.0319
    107  N        144.6510  121.8760   61.8030 N.3   512  GLN512     -0.1245
    108  CA       144.7450  120.7960   60.8530 C.3   512  GLN512      0.1566
    109  C        145.7310  121.1140   59.7700 C.2   512  GLN512      0.2260
    110  O        146.5600  120.2780   59.4060 O.2   512  GLN512     -0.2867
    111  CB       143.3850  120.5180   60.2280 C.3   512  GLN512      0.0367
    112  CG       142.3480  119.9990   61.1950 C.3   512  GLN512      0.0905
    113  CD       141.5150  121.1020   61.8090 C.2   512  GLN512      0.2608
    114  OE1      140.3390  120.9090   62.1190 O.2   512  GLN512     -0.2717
    115  NE2      142.1190  122.2600   62.0000 N.am  512  GLN512     -0.0878
@<TRIPOS>BOND
     1    13    12    2
     2    12    11    1
     3    26    27    1
     4    28    27    1
     5    28    29    2
     6     1     2    1
     7    38    39    1
     8    27    30    1
     9    11    10    1
    10    11    14    1
    11    10     3   am
    12    14    15    1
    13    40    39    1
    14    40    41    2
    15    39    42    1
    16     3     2    1
    17     3     4    2
    18     2     5    1
    19    30    31    1
    20    32    31   ar
    21    32    34   ar
    22    15    17   ar
    23    15    16   ar
    24     5     6    1
    25    51    48    1
    26    51    52    1
    27    31    33   ar
    28    48    49    1
    29    48    47    1
    30    90    88    1
    31    34    36   ar
    32    42    43    1
    33    49    50    2
    34    21    20    2
    35    43    44    1
    36    54    52   ar
    37    54    56   ar
    38    52    53   ar
    39    33    35   ar
    40    20    19    1
    41     6     7    1
    42    36    35   ar
    43    36    37    1
    44    18    19    1
    45   100    99    1
    46    19    22    1
    47    88    87    1
    48    88    89    1
    49     7     8    1
    50    44    46   ar
    51    44    45   ar
    52    87    84    1
    53    56    57   ar
    54    53    55   ar
    55    99    98    2
    56    99   101    1
    57    98    97    1
    58    24    23   ar
    59    96    97    1
    60    96    95    1
    61    22    23    1
    62    86    85    2
    63    57    55   ar
    64    57    58    1
    65     8     9    1
    66    95    92    1
    67    23    25   ar
    68    84    85    1
    69    84    83    1
    70    85    91   am
    71    83    76   am
    72   110   109    2
    73    62    61    2
    74   109   108    1
    75    91    92    1
    76    94    93    2
    77    59    60    1
    78    92    93    1
    79   111   108    1
    80   111   112    1
    81    76    75    1
    82    76    77    2
    83    74    75    1
    84    74    69   am
    85    93   102   am
    86    75    78    1
    87    61    60    1
    88    61    67   am
    89    63    60    1
    90    63    64    1
    91   108   107    1
    92    64    65    1
    93    68    69    1
    94    68    67    1
    95    68    71    1
    96   112   113    1
    97    69    70    2
    98   102   103    1
    99    65    66    1
   100   105   104    2
   101   103   104    1
   102   103   106    1
   103   113   115   am
   104   113   114    2
   105    78    79    1
   106    79    80    1
   107    73    71    1
   108    71    72    1
   109    81    80    1
   110    81    82    1
