@<TRIPOS>MOLECULE
tmp/1p0iA00.pdb
 102 100 0 0 0
SMALL
GASTEIGER

@<TRIPOS>ATOM
      1  N        158.7690  112.3890   36.8010 N.3   234  TYR234     -0.1227
      2  CA       159.0690  110.9920   37.0610 C.3   234  TYR234      0.1736
      3  C        157.8200  110.1610   36.8040 C.2   234  TYR234      0.2595
      4  O        157.8300  109.2520   35.9640 O.2   234  TYR234     -0.2718
      5  CB       159.5160  110.8090   38.5110 C.3   234  TYR234      0.0548
      6  CG       160.6700  109.8570   38.6650 C.ar  234  TYR234     -0.0200
      7  CD1      160.4840  108.4770   38.6190 C.ar  234  TYR234     -0.0009
      8  CD2      161.9640  110.3450   38.8300 C.ar  234  TYR234     -0.0009
      9  CE1      161.5650  107.6050   38.7390 C.ar  234  TYR234      0.0417
     10  CE2      163.0470  109.4870   38.9470 C.ar  234  TYR234      0.0417
     11  CZ       162.8420  108.1190   38.9000 C.ar  234  TYR234      0.1957
     12  OH       163.9290  107.2870   39.0180 O.3   234  TYR234     -0.2866
     13  N        156.7480  110.4690   37.5250 N.am  235  GLU235     -0.1979
     14  CA       155.5060  109.7440   37.3440 C.3   235  GLU235      0.1602
     15  C        155.0670  109.8040   35.8880 C.2   235  GLU235      0.2287
     16  O        154.6400  108.8050   35.3380 O.2   235  GLU235     -0.2864
     17  CB       154.3870  110.3390   38.2090 C.3   235  GLU235      0.0415
     18  CG       154.6540  110.2990   39.6960 C.3   235  GLU235      0.1163
     19  CD       153.6770  111.1740   40.4930 C.2   235  GLU235      0.3649
     20  OE1      153.4330  112.3360   40.0650 O.co2 235  GLU235     -0.2457
     21  OE2      153.1730  110.7030   41.5520 O.co2 235  GLU235     -0.2457
     22  N        156.9940  107.3090   33.6240 N.3   238  ASN238     -0.1225
     23  CA       156.5730  105.9600   33.9370 C.3   238  ASN238      0.1785
     24  C        155.1580  105.6860   33.4310 C.2   238  ASN238      0.2597
     25  O        154.8500  104.5550   33.0270 O.2   238  ASN238     -0.2718
     26  CB       156.6210  105.7290   35.4520 C.3   238  ASN238      0.1169
     27  CG       156.8760  104.2720   35.8130 C.2   238  ASN238      0.2627
     28  OD1      157.8380  103.6700   35.3160 O.2   238  ASN238     -0.2716
     29  ND2      156.0330  103.7130   36.6800 N.am  238  ASN238     -0.0877
     30  N        154.3020  106.7120   33.4650 N.am  239  ARG239     -0.1979
     31  CA       152.9200  106.5680   33.0270 C.3   239  ARG239      0.1597
     32  C        152.8090  106.5080   31.5130 C.2   239  ARG239      0.2287
     33  O        152.0940  105.6610   30.9800 O.2   239  ARG239     -0.2864
     34  CB       152.0560  107.6900   33.6330 C.3   239  ARG239      0.0334
     35  CG       151.9530  107.5210   35.1390 C.3   239  ARG239      0.0492
     36  CD       151.2060  108.6530   35.8750 C.3   239  ARG239      0.2205
     37  NE       151.4310  108.5770   37.3280 N.pl3 239  ARG239     -0.0865
     38  CZ       150.7840  109.3160   38.2260 C.cat 239  ARG239      0.5346
     39  NH1      149.8620  110.1900   37.8470 N.pl3 239  ARG239      0.1354
     40  NH2      151.0720  109.1970   39.5090 N.pl3 239  ARG239      0.1354
     41  N        154.0810  103.0740   30.6650 N.3   242  ASN242     -0.1240
     42  CA       153.1530  102.0020   31.0120 C.3   242  ASN242      0.1653
     43  C        152.0020  101.9670   30.0120 C.2   242  ASN242      0.2266
     44  O        151.5160  100.8970   29.6490 O.2   242  ASN242     -0.2867
     45  CB       152.5950  102.1830   32.4230 C.3   242  ASN242      0.1155
     46  CG       153.5900  101.8020   33.4850 C.2   242  ASN242      0.2627
     47  OD1      154.5320  101.0600   33.2190 O.2   242  ASN242     -0.2716
     48  ND2      153.3850  102.2940   34.7050 N.am  242  ASN242     -0.0877
     49  N        153.3670  100.2240   26.8610 N.3   245  LYS245     -0.1231
     50  CA       153.3750   98.7860   27.0080 C.3   245  LYS245      0.1693
     51  C        151.9670   98.2040   26.9530 C.2   245  LYS245      0.2591
     52  O        151.7000   97.3260   26.1370 O.2   245  LYS245     -0.2718
     53  CB       154.0500   98.3710   28.3130 C.3   245  LYS245      0.0285
     54  CG       154.1330   96.8670   28.4760 C.3   245  LYS245      0.0035
     55  CD       154.6660   96.4840   29.8340 C.3   245  LYS245      0.0206
     56  CE       154.8740   94.9770   29.9250 C.3   245  LYS245      0.1093
     57  NZ       155.4650   94.5600   31.2260 N.3   245  LYS245     -0.1314
     58  N        151.0660   98.6950   27.8010 N.am  246  LEU246     -0.1980
     59  CA       149.7020   98.1810   27.8440 C.3   246  LEU246      0.1596
     60  C        148.9590   98.1730   26.5120 C.2   246  LEU246      0.2287
     61  O        147.9890   97.4480   26.3620 O.2   246  LEU246     -0.2864
     62  CB       148.8810   98.9540   28.8700 C.3   246  LEU246      0.0297
     63  CG       149.2590   98.7230   30.3300 C.3   246  LEU246      0.0022
     64  CD1      148.7960   99.8830   31.2070 C.3   246  LEU246      0.0001
     65  CD2      148.6180   97.4410   30.7820 C.3   246  LEU246      0.0001
     66  N        145.0500  101.6830   34.4590 N.3   275  PHE275     -0.1241
     67  CA       146.1400  100.8230   34.8960 C.3   275  PHE275      0.1605
     68  C        147.5570  101.3790   34.7840 C.2   275  PHE275      0.2264
     69  O        148.5150  100.6890   35.1250 O.2   275  PHE275     -0.2867
     70  CB       146.0450   99.4950   34.1390 C.3   275  PHE275      0.0534
     71  CG       144.6530   98.9350   34.0830 C.ar  275  PHE275     -0.0203
     72  CD1      143.9070   99.0150   32.9240 C.ar  275  PHE275     -0.0042
     73  CD2      144.0810   98.3350   35.2020 C.ar  275  PHE275     -0.0042
     74  CE1      142.6060   98.5000   32.8770 C.ar  275  PHE275     -0.0003
     75  CE2      142.7780   97.8220   35.1540 C.ar  275  PHE275     -0.0003
     76  CZ       142.0480   97.9070   33.9910 C.ar  275  PHE275     -0.0000
     77  N        148.9680  103.3840   36.6460 N.3   277  VAL277     -0.1231
     78  CA       149.5450  103.5850   37.9710 C.3   277  VAL277      0.1678
     79  C        149.3970  102.2980   38.7840 C.2   277  VAL277      0.2434
     80  O        148.3130  101.7150   38.8560 O.2   277  VAL277     -0.2733
     81  CB       148.8680  104.7700   38.7470 C.3   277  VAL277      0.0265
     82  CG1      149.1810  106.1020   38.0690 C.3   277  VAL277      0.0020
     83  CG2      147.3810  104.5740   38.8080 C.3   277  VAL277      0.0020
     84  N        150.4880  101.8460   39.4210 N.am  278  PRO278     -0.2718
     85  CA       150.4490  100.6190   40.2220 C.3   278  PRO278      0.1535
     86  C        149.2420  100.5420   41.1770 C.2   278  PRO278      0.2598
     87  O        148.4680   99.5810   41.1460 O.2   278  PRO278     -0.2715
     88  CB       151.7940  100.6510   40.9500 C.3   278  PRO278      0.0310
     89  CG       152.0690  102.1170   41.0860 C.3   278  PRO278      0.0237
     90  CD       151.7070  102.6200   39.7150 C.3   278  PRO278      0.0939
     91  N        149.0810  101.5550   42.0200 N.am  279  TYR279     -0.1974
     92  CA       147.9640  101.5920   42.9560 C.3   279  TYR279      0.1639
     93  C        147.4570  103.0290   42.9930 C.2   279  TYR279      0.2290
     94  O        148.1720  103.9450   43.4060 O.2   279  TYR279     -0.2864
     95  CB       148.4190  101.1520   44.3650 C.3   279  TYR279      0.0560
     96  CG       147.3080  100.5960   45.2380 C.ar  279  TYR279     -0.0198
     97  CD1      147.6020   99.8890   46.4050 C.ar  279  TYR279     -0.0009
     98  CD2      145.9660  100.7500   44.8850 C.ar  279  TYR279     -0.0009
     99  CE1      146.5900   99.3450   47.1960 C.ar  279  TYR279      0.0417
    100  CE2      144.9460  100.2110   45.6700 C.ar  279  TYR279      0.0417
    101  CZ       145.2660   99.5090   46.8220 C.ar  279  TYR279      0.1957
    102  OH       144.2630   98.9650   47.5910 O.3   279  TYR279     -0.2866
@<TRIPOS>BOND
     1    52    51    2
     2    61    60    2
     3    60    59    1
     4    49    50    1
     5    51    50    1
     6    51    58   am
     7    50    53    1
     8    58    59    1
     9    59    62    1
    10    53    54    1
    11    54    55    1
    12    62    63    1
    13    44    43    2
    14    55    56    1
    15    56    57    1
    16    43    42    1
    17    63    65    1
    18    63    64    1
    19    41    42    1
    20    33    32    2
    21    42    45    1
    22    32    31    1
    23    45    46    1
    24    74    72   ar
    25    74    76   ar
    26    72    71   ar
    27    25    24    2
    28    31    30    1
    29    31    34    1
    30    47    46    2
    31    24    30   am
    32    24    23    1
    33    46    48   am
    34    22    23    1
    35    34    35    1
    36    23    26    1
    37    76    75   ar
    38    71    70    1
    39    71    73   ar
    40    70    67    1
    41    66    67    1
    42    68    67    1
    43    68    69    2
    44    35    36    1
    45    75    73   ar
    46    28    27    2
    47    16    15    2
    48    26    27    1
    49    27    29   am
    50    36    37    1
    51    15    14    1
    52     4     3    2
    53    77    78    1
    54     1     2    1
    55     3     2    1
    56     3    13   am
    57     2     5    1
    58    37    38    2
    59    14    13    1
    60    14    17    1
    61    39    38    1
    62    78    81    1
    63    78    79    1
    64    82    81    1
    65    17    18    1
    66    38    40    1
    67     5     6    1
    68     7     6   ar
    69     7     9   ar
    70     6     8   ar
    71     9    11   ar
    72    81    83    1
    73    79    80    2
    74    79    84   am
    75     8    10   ar
    76    11    10   ar
    77    11    12    1
    78    84    90    1
    79    84    85    1
    80    18    19    1
    81    90    89    1
    82    20    19   ar
    83    85    88    1
    84    85    86    1
    85    19    21   ar
    86    88    89    1
    87    87    86    2
    88    86    91   am
    89    91    92    1
    90    92    93    1
    91    92    95    1
    92    93    94    2
    93    95    96    1
    94    98    96   ar
    95    98   100   ar
    96    96    97   ar
    97   100   101   ar
    98    97    99   ar
    99   101    99   ar
   100   101   102    1
