@<TRIPOS>MOLECULE
tmp/1p0mA05.pdb
 110 108 0 0 0
SMALL
GASTEIGER

@<TRIPOS>ATOM
      1  N        127.4620  114.3190   36.7850 N.3    79  TRP79      -0.1241
      2  CA       128.8110  114.7660   36.4340 C.3    79  TRP79       0.1605
      3  C        129.3460  114.1000   35.1700 C.2    79  TRP79       0.2264
      4  O        130.3510  114.5340   34.6130 O.2    79  TRP79      -0.2867
      5  CB       129.7890  114.5110   37.5930 C.3    79  TRP79       0.0550
      6  CG       129.3560  115.1600   38.8830 C.ar   79  TRP79       0.0003
      7  CD1      128.8600  114.5310   39.9820 C.ar   79  TRP79       0.0946
      8  CD2      129.3120  116.5730   39.1780 C.ar   79  TRP79       0.0152
      9  NE1      128.4990  115.4560   40.9470 N.ar   79  TRP79      -0.2442
     10  CE2      128.7640  116.7150   40.4760 C.ar   79  TRP79       0.0810
     11  CE3      129.6860  117.7260   38.4760 C.ar   79  TRP79       0.0012
     12  CZ2      128.5750  117.9690   41.0840 C.ar   79  TRP79       0.0191
     13  CZ3      129.5000  118.9720   39.0870 C.ar   79  TRP79       0.0001
     14  CH2      128.9490  119.0790   40.3750 C.ar   79  TRP79       0.0015
     15  N        136.1210  121.1730   36.2560 N.3   112  GLY112     -0.1210
     16  CA       137.0430  120.2670   36.9010 C.3   112  GLY112      0.1956
     17  C        136.7520  118.8140   36.5360 C.2   112  GLY112      0.2612
     18  O        135.9750  118.5130   35.6440 O.2   112  GLY112     -0.2717
     19  N        137.3720  117.8930   37.2510 N.am  113  GLY113     -0.1942
     20  CA       137.1770  116.4960   36.9480 C.3   113  GLY113      0.2014
     21  C        138.5130  115.7890   36.9600 C.2   113  GLY113      0.2639
     22  O        138.7620  114.9000   36.1520 O.2   113  GLY113     -0.2714
     23  N        139.3700  116.2010   37.8860 N.am  114  GLY114     -0.1954
     24  CA       140.6800  115.6060   38.0330 C.3   114  GLY114      0.1869
     25  C        141.5560  115.5720   36.7930 C.2   114  GLY114      0.2309
     26  O        142.4940  114.7910   36.7430 O.2   114  GLY114     -0.2863
     27  N        138.3530  113.8620   33.4880 N.3   117  THR117     -0.1218
     28  CA       136.9670  113.9480   33.0450 C.3   117  THR117      0.1862
     29  C        136.3980  115.3880   33.0730 C.2   117  THR117      0.2287
     30  O        137.0950  116.3450   33.3900 O.2   117  THR117     -0.2866
     31  CB       136.0480  113.0680   33.9410 C.3   117  THR117      0.1770
     32  OG1      135.9650  113.6570   35.2380 O.3   117  THR117     -0.2211
     33  CG2      136.6140  111.6670   34.1270 C.3   117  THR117      0.0375
     34  N        127.5650  120.4090   30.9760 N.3   122  LEU122     -0.1245
     35  CA       126.7930  119.9650   32.1280 C.3   122  LEU122      0.1561
     36  C        125.7310  120.9820   32.5190 C.2   122  LEU122      0.2260
     37  O        125.9130  122.1900   32.4010 O.2   122  LEU122     -0.2867
     38  CB       127.6990  119.6640   33.3370 C.3   122  LEU122      0.0270
     39  CG       128.7160  118.5220   33.2320 C.3   122  LEU122      0.0019
     40  CD1      129.3630  118.2800   34.5900 C.3   122  LEU122      0.0001
     41  CD2      128.0200  117.2760   32.7520 C.3   122  LEU122      0.0001
     42  N        126.6440  123.9330   34.6640 N.3   125  TYR125     -0.1241
     43  CA       127.5690  124.9580   34.1500 C.3   125  TYR125      0.1605
     44  C        126.8650  125.8590   33.1380 C.2   125  TYR125      0.2264
     45  O        127.5170  126.5750   32.3850 O.2   125  TYR125     -0.2867
     46  CB       128.8020  124.3430   33.4750 C.3   125  TYR125      0.0534
     47  CG       129.5770  123.3290   34.2970 C.ar  125  TYR125     -0.0201
     48  CD1      129.6420  123.4130   35.6990 C.ar  125  TYR125     -0.0009
     49  CD2      130.2650  122.2960   33.6690 C.ar  125  TYR125     -0.0009
     50  CE1      130.3680  122.4900   36.4440 C.ar  125  TYR125      0.0417
     51  CE2      131.0030  121.3620   34.4060 C.ar  125  TYR125      0.0417
     52  CZ       131.0430  121.4680   35.7960 C.ar  125  TYR125      0.1957
     53  OH       131.7350  120.5560   36.5580 O.3   125  TYR125     -0.2866
     54  N        136.4090  125.0690   39.0690 N.3   194  GLU194     -0.1231
     55  CA       136.3070  124.2800   40.2900 C.3   194  GLU194      0.1699
     56  C        137.1620  123.0440   40.1770 C.2   194  GLU194      0.2592
     57  O        137.3920  122.5350   39.0690 O.2   194  GLU194     -0.2718
     58  CB       134.8470  123.9460   40.5510 C.3   194  GLU194      0.0402
     59  CG       134.5490  123.2500   41.8840 C.3   194  GLU194      0.1161
     60  CD       134.4650  121.7330   41.7510 C.2   194  GLU194      0.3649
     61  OE1      134.5500  121.2490   40.6140 O.co2 194  GLU194     -0.2457
     62  OE2      134.3180  121.0240   42.7670 O.co2 194  GLU194     -0.2457
     63  N        137.6710  122.5810   41.3180 N.am  195  SER195     -0.1952
     64  CA       138.5130  121.3790   41.3580 C.3   195  SER195      0.1924
     65  C        139.7350  121.5460   40.4220 C.2   195  SER195      0.2314
     66  O        140.5100  122.5100   40.5610 O.2   195  SER195     -0.2863
     67  CB       137.6560  120.1680   40.9770 C.3   195  SER195      0.2116
     68  OG       137.7600  119.1530   41.9480 O.3   195  SER195     -0.2180
     69  N        132.7940  112.9180   49.5100 N.3   325  ALA325     -0.1231
     70  CA       132.5100  112.3520   48.1970 C.3   325  ALA325      0.1694
     71  C        133.4300  111.2180   47.7860 C.2   325  ALA325      0.2592
     72  O        132.9980  110.2680   47.1490 O.2   325  ALA325     -0.2718
     73  CB       132.5510  113.4560   47.1410 C.3   325  ALA325      0.0304
     74  N        134.7000  111.3010   48.1540 N.am  326  PHE326     -0.1976
     75  CA       135.6390  110.2590   47.7550 C.3   326  PHE326      0.1639
     76  C        135.6450  109.0110   48.6260 C.2   326  PHE326      0.2290
     77  O        136.1380  107.9650   48.2090 O.2   326  PHE326     -0.2864
     78  CB       137.0440  110.8370   47.6790 C.3   326  PHE326      0.0560
     79  CG       137.1230  112.0880   46.8580 C.ar  326  PHE326     -0.0200
     80  CD1      136.8400  113.3250   47.4290 C.ar  326  PHE326     -0.0042
     81  CD2      137.4420  112.0300   45.5010 C.ar  326  PHE326     -0.0042
     82  CE1      136.8750  114.4830   46.6620 C.ar  326  PHE326     -0.0003
     83  CE2      137.4780  113.1840   44.7270 C.ar  326  PHE326     -0.0003
     84  CZ       137.1970  114.4100   45.2990 C.ar  326  PHE326     -0.0000
     85  N        131.9740  118.2460   47.9170 N.3   433  HIS433     -0.1226
     86  CA       132.8670  118.7380   46.8910 C.3   433  HIS433      0.1752
     87  C        132.0370  118.8870   45.6080 C.2   433  HIS433      0.2597
     88  O        131.3720  117.9560   45.1690 O.2   433  HIS433     -0.2718
     89  CB       133.9750  117.7020   46.6880 C.3   433  HIS433      0.0759
     90  CG       134.9120  118.0090   45.5650 C.ar  433  HIS433      0.0818
     91  ND1      135.8040  119.0580   45.5980 N.ar  433  HIS433     -0.2268
     92  CD2      135.1010  117.3950   44.3760 C.ar  433  HIS433      0.1154
     93  CE1      136.5030  119.0780   44.4780 C.ar  433  HIS433      0.1986
     94  NE2      136.0950  118.0780   43.7200 N.ar  433  HIS433     -0.2212
     95  N        132.0620  120.0790   45.0370 N.am  434  GLY434     -0.1942
     96  CA       131.3430  120.3470   43.8070 C.3   434  GLY434      0.2014
     97  C        129.9360  120.8830   43.9550 C.2   434  GLY434      0.2638
     98  O        129.3230  121.2760   42.9800 O.2   434  GLY434     -0.2714
     99  N        129.4150  120.9220   45.1670 N.am  435  TYR435     -0.1973
    100  CA       128.0520  121.3770   45.3230 C.3   435  TYR435      0.1639
    101  C        127.7900  122.8350   45.6740 C.2   435  TYR435      0.2290
    102  O        126.7330  123.1770   46.1910 O.2   435  TYR435     -0.2864
    103  CB       127.3090  120.4140   46.2570 C.3   435  TYR435      0.0560
    104  CG       127.0690  119.0900   45.5510 C.ar  435  TYR435     -0.0198
    105  CD1      128.0510  118.0900   45.5250 C.ar  435  TYR435     -0.0009
    106  CD2      125.9060  118.8840   44.8050 C.ar  435  TYR435     -0.0009
    107  CE1      127.8790  116.9220   44.7660 C.ar  435  TYR435      0.0417
    108  CE2      125.7200  117.7240   44.0500 C.ar  435  TYR435      0.0417
    109  CZ       126.7070  116.7440   44.0280 C.ar  435  TYR435      0.1957
    110  OH       126.5210  115.5950   43.2700 O.3   435  TYR435     -0.2866
@<TRIPOS>BOND
     1    34    35    1
     2    35    36    1
     3    35    38    1
     4    45    44    2
     5    37    36    2
     6    41    39    1
     7    28    29    1
     8    28    27    1
     9    28    31    1
    10    29    30    2
    11    44    43    1
    12    39    38    1
    13    39    40    1
    14    46    43    1
    15    46    47    1
    16    49    47   ar
    17    49    51   ar
    18    31    33    1
    19    31    32    1
    20    43    42    1
    21    47    48   ar
    22    51    52   ar
    23     4     3    2
    24     3     2    1
    25    18    17    2
    26    48    50   ar
    27    52    50   ar
    28    52    53    1
    29    22    21    2
    30    15    16    1
    31     2     1    1
    32     2     5    1
    33    17    16    1
    34    17    19   am
    35    26    25    2
    36    25    24    1
    37    20    21    1
    38    20    19    1
    39    21    23   am
    40     5     6    1
    41    23    24    1
    42    11    13   ar
    43    11     8   ar
    44     6     8   ar
    45     6     7   ar
    46    54    55    1
    47    57    56    2
    48    13    14   ar
    49     8    10   ar
    50     7     9   ar
    51    56    55    1
    52    56    63   am
    53    55    58    1
    54    14    12   ar
    55    65    66    2
    56    65    64    1
    57    10     9   ar
    58    10    12   ar
    59    58    59    1
    60    61    60   ar
    61    67    64    1
    62    67    68    1
    63    63    64    1
    64    60    59    1
    65    60    62   ar
    66    98    97    2
    67   110   109    1
    68    94    92   ar
    69    94    93   ar
    70    96    97    1
    71    96    95    1
    72    97    99   am
    73   109   108   ar
    74   109   107   ar
    75   108   106   ar
    76    92    90   ar
    77    93    91   ar
    78    83    84   ar
    79    83    81   ar
    80   107   105   ar
    81   106   104   ar
    82    95    87   am
    83    99   100    1
    84    88    87    2
    85    84    82   ar
    86   100   101    1
    87   100   103    1
    88    81    79   ar
    89   105   104   ar
    90   104   103    1
    91    90    91   ar
    92    90    89    1
    93    87    86    1
    94   101   102    2
    95    82    80   ar
    96    89    86    1
    97    79    80   ar
    98    79    78    1
    99    86    85    1
   100    73    70    1
   101    72    71    2
   102    78    75    1
   103    75    74    1
   104    75    76    1
   105    71    74   am
   106    71    70    1
   107    70    69    1
   108    77    76    2
