@<TRIPOS>MOLECULE
tmp/1p0nB00.pdb
 140 133 0 0 0
SMALL
GASTEIGER

@<TRIPOS>ATOM
      1  N         36.1040   -4.2990  -13.0320 N.3    40  ASN40      -0.1225
      2  CA        36.3000   -2.8530  -13.0850 C.3    40  ASN40       0.1785
      3  C         36.8200   -2.3920  -11.7280 C.2    40  ASN40       0.2597
      4  O         36.0340   -2.1320  -10.8240 O.2    40  ASN40      -0.2718
      5  CB        34.9720   -2.1560  -13.3870 C.3    40  ASN40       0.1169
      6  CG        34.8360   -1.7710  -14.8400 C.2    40  ASN40       0.2627
      7  OD1       33.7320   -1.7410  -15.3860 O.2    40  ASN40      -0.2716
      8  ND2       35.9590   -1.4580  -15.4750 N.am   40  ASN40      -0.0877
      9  N         38.1350   -2.2930  -11.5580 N.am   41  ALA41      -0.1966
     10  CA        38.6670   -1.8590  -10.2620 C.3    41  ALA41       0.1728
     11  C         38.2290   -0.4340   -9.9150 C.2    41  ALA41       0.2616
     12  O         37.7790    0.3310  -10.7790 O.2    41  ALA41      -0.2715
     13  CB        40.1830   -1.9610  -10.2520 C.3    41  ALA41       0.0334
     14  N         38.3270   -0.0820   -8.6430 N.am   42  MET42      -0.1963
     15  CA        37.9700    1.2630   -8.2320 C.3    42  MET42       0.1736
     16  C         39.2630    2.0020   -7.9010 C.2    42  MET42       0.2617
     17  O         40.2280    1.4060   -7.3980 O.2    42  MET42      -0.2715
     18  CB        37.0620    1.2150   -7.0060 C.3    42  MET42       0.0427
     19  CG        35.9540    0.2020   -7.1350 C.3    42  MET42       0.0599
     20  SD        34.5790    0.5160   -6.0350 S.3    42  MET42      -0.1393
     21  CE        33.2210    0.0200   -7.0870 C.3    42  MET42       0.0692
     22  N         39.2790    3.3020   -8.1880 N.am   43  THR43      -0.1937
     23  CA        40.4540    4.1290   -7.9230 C.3    43  THR43       0.2028
     24  C         40.9310    3.9710   -6.4820 C.2    43  THR43       0.2642
     25  O         42.1140    3.7270   -6.2390 O.2    43  THR43      -0.2714
     26  CB        40.1880    5.6280   -8.1730 C.3    43  THR43       0.1808
     27  OG1       38.9150    5.7890   -8.8170 O.3    43  THR43      -0.2208
     28  CG2       41.2920    6.2310   -9.0530 C.3    43  THR43       0.0379
     29  N         40.0160    4.1200   -5.5300 N.am   44  GLY44      -0.1954
     30  CA        40.3860    3.9770   -4.1320 C.3    44  GLY44       0.1869
     31  C         40.9480    5.2400   -3.4970 C.2    44  GLY44       0.2309
     32  O         40.8380    6.3370   -4.0730 O.2    44  GLY44      -0.2863
     33  N         41.6820   -0.8820  -14.7250 N.3    70  VAL70      -0.1231
     34  CA        42.1430   -0.2020  -13.5170 C.3    70  VAL70       0.1692
     35  C         41.3510    1.0740  -13.2800 C.2    70  VAL70       0.2593
     36  O         40.5680    1.4890  -14.1230 O.2    70  VAL70      -0.2718
     37  CB        43.6380    0.1970  -13.6030 C.3    70  VAL70       0.0266
     38  CG1       44.5110   -1.0410  -13.8190 C.3    70  VAL70       0.0020
     39  CG2       43.8440    1.2230  -14.7150 C.3    70  VAL70       0.0020
     40  N         41.5470    1.7010  -12.1270 N.am   71  GLY71      -0.1942
     41  CA        40.8470    2.9400  -11.8660 C.3    71  GLY71       0.2014
     42  C         41.5260    4.0400  -12.6570 C.2    71  GLY71       0.2639
     43  O         42.5300    3.8020  -13.3270 O.2    71  GLY71      -0.2714
     44  N         40.9840    5.2520  -12.5900 N.am   72  SER72      -0.1949
     45  CA        41.5700    6.3760  -13.3150 C.3    72  SER72       0.1924
     46  C         43.0500    6.5180  -12.9530 C.2    72  SER72       0.2314
     47  O         43.4100    6.5230  -11.7730 O.2    72  SER72      -0.2863
     48  CB        40.8110    7.6630  -12.9830 C.3    72  SER72       0.2116
     49  OG        41.4450    8.8040  -13.5270 O.3    72  SER72      -0.2180
     50  N         42.7730    3.6070  -17.9520 N.3   101  ASN101     -0.1240
     51  CA        41.6400    4.4670  -17.6490 C.3   101  ASN101      0.1653
     52  C         41.9790    5.9360  -17.4050 C.2   101  ASN101      0.2266
     53  O         42.8460    6.2590  -16.5970 O.2   101  ASN101     -0.2867
     54  CB        40.9490    3.9040  -16.4140 C.3   101  ASN101      0.1155
     55  CG        39.6530    4.5900  -16.1070 C.2   101  ASN101      0.2627
     56  OD1       39.6250    5.7590  -15.7050 O.2   101  ASN101     -0.2716
     57  ND2       38.5600    3.8660  -16.2820 N.am  101  ASN101     -0.0877
     58  N         36.3060    7.6640  -19.8230 N.3   126  HIS126     -0.1241
     59  CA        34.9650    7.8040  -19.2700 C.3   126  HIS126      0.1621
     60  C         34.4330    9.2240  -19.4180 C.2   126  HIS126      0.2264
     61  O         35.1790   10.1970  -19.3360 O.2   126  HIS126     -0.2867
     62  CB        34.9110    7.3310  -17.8070 C.3   126  HIS126      0.0745
     63  CG        35.8230    8.0770  -16.8800 C.ar  126  HIS126      0.0817
     64  ND1       36.8880    7.4720  -16.2430 N.ar  126  HIS126     -0.2268
     65  CD2       35.8280    9.3740  -16.4760 C.ar  126  HIS126      0.1154
     66  CE1       37.5120    8.3650  -15.4900 C.ar  126  HIS126      0.1986
     67  NE2       36.8910    9.5260  -15.6150 N.ar  126  HIS126     -0.2212
     68  N         33.5250    5.1560  -22.2290 N.3   157  LYS157     -0.1245
     69  CA        32.5850    4.7210  -21.2030 C.3   157  LYS157      0.1561
     70  C         31.7050    5.8320  -20.6590 C.2   157  LYS157      0.2260
     71  O         32.1940    6.9240  -20.3870 O.2   157  LYS157     -0.2867
     72  CB        33.3750    4.1130  -20.0510 C.3   157  LYS157      0.0271
     73  CG        32.5470    3.7600  -18.8510 C.3   157  LYS157      0.0035
     74  CD        33.4290    3.1390  -17.7750 C.3   157  LYS157      0.0206
     75  CE        32.5730    2.4740  -16.6930 C.3   157  LYS157      0.1093
     76  NZ        33.4030    1.6490  -15.7750 N.3   157  LYS157     -0.1314
     77  N         29.3250    6.7750  -17.5360 N.3   159  VAL159     -0.1245
     78  CA        29.0470    6.3080  -16.1740 C.3   159  VAL159      0.1561
     79  C         27.6770    6.6730  -15.5990 C.2   159  VAL159      0.2260
     80  O         27.5030    7.7640  -15.0560 O.2   159  VAL159     -0.2867
     81  CB        30.1320    6.8230  -15.1710 C.3   159  VAL159      0.0252
     82  CG1       31.0740    5.6720  -14.7570 C.3   159  VAL159      0.0019
     83  CG2       30.9360    7.9710  -15.8120 C.3   159  VAL159      0.0019
     84  N         26.9310    2.3740  -19.0130 N.3   182  GLY182     -0.1225
     85  CA        26.7990    2.2790  -17.5670 C.3   182  GLY182      0.1811
     86  C         25.4910    2.8850  -17.0460 C.2   182  GLY182      0.2280
     87  O         25.3490    3.1080  -15.8280 O.2   182  GLY182     -0.2866
     88  N         28.2970   -2.2350  -18.2140 N.3   215  SER215     -0.1202
     89  CA        28.8610   -2.4290  -16.8910 C.3   215  SER215      0.2020
     90  C         28.0620   -1.6550  -15.8630 C.2   215  SER215      0.2619
     91  O         27.3490   -0.7190  -16.2140 O.2   215  SER215     -0.2717
     92  CB        30.3570   -2.0790  -16.8630 C.3   215  SER215      0.2103
     93  OG        30.6280   -0.8210  -17.4370 O.3   215  SER215     -0.2182
     94  N         28.1100   -2.0820  -14.6040 N.am  216  GLY216     -0.1942
     95  CA        27.3480   -1.3960  -13.5670 C.3   216  GLY216      0.2014
     96  C         25.8740   -1.7740  -13.4320 C.2   216  GLY216      0.2639
     97  O         25.0790   -1.5590  -14.3510 O.2   216  GLY216     -0.2714
     98  N         25.5140   -2.3290  -12.2760 N.am  217  GLY217     -0.1939
     99  CA        24.1390   -2.7250  -12.0200 C.3   217  GLY217      0.2014
    100  C         23.8690   -4.1870  -12.2830 C.2   217  GLY217      0.2638
    101  O         22.8170   -4.7090  -11.9020 O.2   217  GLY217     -0.2714
    102  N         24.8180   -4.8430  -12.9420 N.am  218  LEU218     -0.1977
    103  CA        24.6820   -6.2430  -13.2550 C.3   218  LEU218      0.1596
    104  C         24.8630   -6.9980  -11.9700 C.2   218  LEU218      0.2287
    105  O         25.9680   -7.3160  -11.5570 O.2   218  LEU218     -0.2864
    106  CB        25.7250   -6.6600  -14.2680 C.3   218  LEU218      0.0297
    107  CG        25.7600   -5.7610  -15.4980 C.3   218  LEU218      0.0022
    108  CD1       26.7620   -6.3380  -16.4350 C.3   218  LEU218      0.0001
    109  CD2       24.4020   -5.6690  -16.1630 C.3   218  LEU218      0.0001
    110  N         30.9360   -5.7600  -17.4740 N.3   236  GLY236     -0.1210
    111  CA        31.8940   -5.4830  -16.4170 C.3   236  GLY236      0.1956
    112  C         31.2440   -5.4190  -15.0540 C.2   236  GLY236      0.2612
    113  O         30.0870   -5.0230  -14.9420 O.2   236  GLY236     -0.2717
    114  N         31.9680   -5.8260  -14.0170 N.am  237  MET237     -0.1965
    115  CA        31.4490   -5.7850  -12.6550 C.3   237  MET237      0.1736
    116  C         32.5180   -5.2470  -11.7100 C.2   237  MET237      0.2616
    117  O         33.7010   -5.5170  -11.8880 O.2   237  MET237     -0.2715
    118  CB        30.9970   -7.1800  -12.2020 C.3   237  MET237      0.0427
    119  CG        29.7090   -7.6470  -12.8350 C.3   237  MET237      0.0599
    120  SD        29.1780   -9.1700  -12.0910 S.3   237  MET237     -0.1393
    121  CE        29.3890  -10.2990  -13.4430 C.3   237  MET237      0.0692
    122  N         32.1020   -4.4690  -10.7130 N.am  238  ALA238     -0.1963
    123  CA        33.0370   -3.8780   -9.7430 C.3   238  ALA238      0.1728
    124  C         32.6830   -4.2370   -8.2980 C.2   238  ALA238      0.2617
    125  O         33.2140   -5.2160   -7.7550 O.2   238  ALA238     -0.2715
    126  CB        33.0810   -2.3500   -9.9090 C.3   238  ALA238      0.0334
    127  N         31.7880   -3.4570   -7.6840 N.am  239  GLY239     -0.1940
    128  CA        31.3780   -3.7010   -6.3060 C.3   239  GLY239      0.2014
    129  C         31.3410   -5.1670   -5.9120 C.2   239  GLY239      0.2638
    130  O         31.9810   -5.5930   -4.9440 O.2   239  GLY239     -0.2714
    131  N         30.5980   -5.9540   -6.6690 N.am  240  HIS240     -0.1973
    132  CA        30.4930   -7.3660   -6.3820 C.3   240  HIS240      0.1656
    133  C         31.8420   -8.0200   -6.0730 C.2   240  HIS240      0.2291
    134  O         31.9810   -8.7370   -5.0840 O.2   240  HIS240     -0.2864
    135  CB        29.8380   -8.0720   -7.5670 C.3   240  HIS240      0.0771
    136  CG        29.5880   -9.5190   -7.3260 C.ar  240  HIS240      0.0820
    137  ND1       28.7600   -9.9690   -6.3250 N.ar  240  HIS240     -0.2267
    138  CD2       30.1140  -10.6220   -7.9050 C.ar  240  HIS240      0.1154
    139  CE1       28.7900  -11.2890   -6.2940 C.ar  240  HIS240      0.1986
    140  NE2       29.6040  -11.7100   -7.2430 N.ar  240  HIS240     -0.2212
@<TRIPOS>BOND
     1    68    69    1
     2    69    70    1
     3    69    72    1
     4    70    71    2
     5    72    73    1
     6    58    59    1
     7    60    61    2
     8    60    59    1
     9    59    62    1
    10    84    85    1
    11    73    74    1
    12    88    89    1
    13    50    51    1
    14    62    63    1
    15    74    75    1
    16    51    52    1
    17    51    54    1
    18    85    86    1
    19    77    78    1
    20   110   111    1
    21    93    92    1
    22    52    53    2
    23    86    87    2
    24    89    92    1
    25    89    90    1
    26    63    65   ar
    27    63    64   ar
    28    75    76    1
    29    65    67   ar
    30   108   107    1
    31   111   112    1
    32    54    55    1
    33    57    55   am
    34    64    66   ar
    35    91    90    2
    36    78    79    1
    37    78    81    1
    38   109   107    1
    39    55    56    2
    40    90    94   am
    41    83    81    1
    42    67    66   ar
    43    79    80    2
    44   107   106    1
    45     8     6   am
    46     7     6    2
    47    81    82    1
    48   112   113    2
    49   112   114   am
    50     6     5    1
    51    33    34    1
    52    39    37    1
    53    94    95    1
    54    97    96    2
    55   106   103    1
    56    36    35    2
    57   114   115    1
    58    38    37    1
    59    37    34    1
    60    95    96    1
    61    49    48    1
    62    34    35    1
    63   121   120    1
    64    96    98   am
    65     5     2    1
    66    43    42    2
    67    45    48    1
    68    45    46    1
    69    45    44    1
    70    35    40   am
    71   103   102    1
    72   103   104    1
    73     2     1    1
    74     2     3    1
    75    46    47    2
    76   102   100   am
    77   119   118    1
    78   119   120    1
    79    42    44   am
    80    42    41    1
    81   115   118    1
    82   115   116    1
    83   100    99    1
    84   100   101    2
    85    98    99    1
    86    40    41    1
    87   104   105    2
    88   117   116    2
    89     3     9   am
    90     3     4    2
    91   116   122   am
    92     9    10    1
    93    12    11    2
    94   122   123    1
    95    10    13    1
    96    10    11    1
    97    11    14   am
    98   126   123    1
    99   123   124    1
   100    28    26    1
   101    27    26    1
   102    14    15    1
   103   124   125    2
   104   124   127   am
   105    15    16    1
   106    15    18    1
   107    22    23    1
   108    22    16   am
   109    26    23    1
   110    23    24    1
   111   138   136   ar
   112   138   140   ar
   113    16    17    2
   114   127   128    1
   115   135   136    1
   116   135   132    1
   117   136   137   ar
   118   140   139   ar
   119    19    18    1
   120    19    20    1
   121    21    20    1
   122   131   132    1
   123   131   129   am
   124    24    25    2
   125    24    29   am
   126   132   133    1
   127   137   139   ar
   128   128   129    1
   129   133   134    2
   130   129   130    2
   131    29    30    1
   132    30    31    1
   133    32    31    2
