@<TRIPOS>MOLECULE
tmp/1p0pA04.pdb
 165 160 0 0 0
SMALL
GASTEIGER

@<TRIPOS>ATOM
      1  N        131.9950  108.1700   34.8710 N.3    67  ASP67      -0.1239
      2  CA       131.7500  107.6380   36.2040 C.3    67  ASP67       0.1674
      3  C        130.5750  106.6580   36.1170 C.2    67  ASP67       0.2266
      4  O        129.4770  107.0360   35.7040 O.2    67  ASP67      -0.2867
      5  CB       131.4070  108.7820   37.1670 C.3    67  ASP67       0.1410
      6  CG       131.1030  108.2940   38.5730 C.2    67  ASP67       0.3668
      7  OD1      130.6850  109.1180   39.4120 O.co2  67  ASP67      -0.2456
      8  OD2      131.2860  107.0880   38.8460 O.co2  67  ASP67      -0.2456
      9  N        125.8120  111.3620   40.9000 N.3    76  SER76      -0.1217
     10  CA       127.0340  111.1840   40.1350 C.3    76  SER76       0.1889
     11  C        126.8530  111.4210   38.6430 C.2    76  SER76       0.2288
     12  O        127.7480  111.9570   37.9840 O.2    76  SER76      -0.2866
     13  CB       127.5940  109.7790   40.3630 C.3    76  SER76       0.2089
     14  OG       126.6080  108.7850   40.1240 O.3    76  SER76      -0.2183
     15  N        127.3690  114.8130   36.6500 N.3    79  TRP79      -0.1241
     16  CA       128.7130  115.2450   36.2700 C.3    79  TRP79       0.1605
     17  C        129.2060  114.5740   35.0030 C.2    79  TRP79       0.2264
     18  O        130.2140  114.9890   34.4350 O.2    79  TRP79      -0.2867
     19  CB       129.7080  114.9690   37.3980 C.3    79  TRP79       0.0550
     20  CG       129.3000  115.6110   38.6750 C.ar   79  TRP79       0.0003
     21  CD1      128.8340  114.9870   39.7970 C.ar   79  TRP79       0.0946
     22  CD2      129.2370  117.0180   38.9420 C.ar   79  TRP79       0.0152
     23  NE1      128.4780  115.9190   40.7470 N.ar   79  TRP79      -0.2442
     24  CE2      128.7150  117.1740   40.2480 C.ar   79  TRP79       0.0810
     25  CE3      129.5720  118.1630   38.2060 C.ar   79  TRP79       0.0012
     26  CZ2      128.5180  118.4300   40.8330 C.ar   79  TRP79       0.0191
     27  CZ3      129.3760  119.4160   38.7900 C.ar   79  TRP79       0.0001
     28  CH2      128.8530  119.5360   40.0900 C.ar   79  TRP79       0.0015
     29  N        136.0580  121.5530   36.2470 N.3   112  GLY112     -0.1210
     30  CA       136.9620  120.6460   36.9140 C.3   112  GLY112      0.1956
     31  C        136.6900  119.2180   36.4550 C.2   112  GLY112      0.2612
     32  O        135.9140  118.9800   35.5310 O.2   112  GLY112     -0.2717
     33  N        137.3000  118.2570   37.1380 N.am  113  GLY113     -0.1942
     34  CA       137.1420  116.8720   36.7670 C.3   113  GLY113      0.2014
     35  C        138.4930  116.1870   36.8480 C.2   113  GLY113      0.2639
     36  O        138.7500  115.2300   36.1350 O.2   113  GLY113     -0.2714
     37  N        139.3710  116.6880   37.7120 N.am  114  GLY114     -0.1954
     38  CA       140.6730  116.0720   37.8890 C.3   114  GLY114      0.1869
     39  C        141.5220  115.9980   36.6380 C.2   114  GLY114      0.2309
     40  O        142.4240  115.1760   36.5660 O.2   114  GLY114     -0.2863
     41  N        138.2480  114.3270   33.3350 N.3   117  THR117     -0.1203
     42  CA       136.8740  114.3820   32.8700 C.3   117  THR117      0.1994
     43  C        136.3060  115.7880   32.8760 C.2   117  THR117      0.2618
     44  O        136.9790  116.7440   33.2460 O.2   117  THR117     -0.2717
     45  CB       135.9710  113.5190   33.7620 C.3   117  THR117      0.1784
     46  OG1      135.9290  114.0700   35.0890 O.3   117  THR117     -0.2211
     47  CG2      136.4950  112.0840   33.8060 C.3   117  THR117      0.0376
     48  N        135.0480  115.9060   32.4760 N.am  118  GLY118     -0.1956
     49  CA       134.4160  117.2000   32.4910 C.3   118  GLY118      0.1869
     50  C        134.0470  117.7200   31.1230 C.2   118  GLY118      0.2309
     51  O        134.5510  117.2500   30.1100 O.2   118  GLY118     -0.2863
     52  N        127.6050  120.9530   30.7650 N.3   122  LEU122     -0.1245
     53  CA       126.8330  120.4790   31.9150 C.3   122  LEU122      0.1561
     54  C        125.7650  121.5040   32.2870 C.2   122  LEU122      0.2260
     55  O        125.9130  122.6970   32.0510 O.2   122  LEU122     -0.2867
     56  CB       127.7420  120.2010   33.1130 C.3   122  LEU122      0.0270
     57  CG       128.7220  119.0440   33.0030 C.3   122  LEU122      0.0019
     58  CD1      129.3840  118.7720   34.3700 C.3   122  LEU122      0.0001
     59  CD2      127.9560  117.8330   32.4830 C.3   122  LEU122      0.0001
     60  N        126.6350  124.4300   34.5540 N.3   125  TYR125     -0.1241
     61  CA       127.5740  125.4340   34.0330 C.3   125  TYR125      0.1605
     62  C        126.8760  126.3250   33.0070 C.2   125  TYR125      0.2264
     63  O        127.5340  127.0300   32.2520 O.2   125  TYR125     -0.2867
     64  CB       128.7860  124.7850   33.3490 C.3   125  TYR125      0.0534
     65  CG       129.5530  123.7690   34.1780 C.ar  125  TYR125     -0.0201
     66  CD1      129.6570  123.8920   35.5620 C.ar  125  TYR125     -0.0009
     67  CD2      130.2210  122.7070   33.5680 C.ar  125  TYR125     -0.0009
     68  CE1      130.4020  122.9910   36.3100 C.ar  125  TYR125      0.0417
     69  CE2      130.9690  121.8030   34.3070 C.ar  125  TYR125      0.0417
     70  CZ       131.0530  121.9460   35.6740 C.ar  125  TYR125      0.1957
     71  OH       131.7500  121.0170   36.4030 O.3   125  TYR125     -0.2866
     72  N        136.3710  125.4510   39.0460 N.3   194  GLU194     -0.1231
     73  CA       136.3000  124.6750   40.2740 C.3   194  GLU194      0.1699
     74  C        137.1810  123.4270   40.1980 C.2   194  GLU194      0.2592
     75  O        137.3100  122.8080   39.1420 O.2   194  GLU194     -0.2718
     76  CB       134.8350  124.3010   40.5430 C.3   194  GLU194      0.0402
     77  CG       134.5670  123.5920   41.8630 C.3   194  GLU194      0.1161
     78  CD       134.5900  122.0770   41.7370 C.2   194  GLU194      0.3649
     79  OE1      134.6510  121.5800   40.5880 O.co2 194  GLU194     -0.2457
     80  OE2      134.5330  121.3870   42.7820 O.co2 194  GLU194     -0.2457
     81  N        137.7990  123.0790   41.3230 N.am  195  SER195     -0.1952
     82  CA       138.6730  121.9100   41.4160 C.3   195  SER195      0.1924
     83  C        139.8100  121.9650   40.3900 C.2   195  SER195      0.2314
     84  O        140.6320  122.8810   40.4340 O.2   195  SER195     -0.2863
     85  CB       137.8510  120.6340   41.2340 C.3   195  SER195      0.2116
     86  OG       138.4970  119.5500   41.8730 O.3   195  SER195     -0.2180
     87  N        141.3880  107.7540   44.9360 N.3   281  PRO281     -0.2116
     88  CA       140.0960  108.0960   44.3350 C.3   281  PRO281      0.1372
     89  C        140.1100  109.4070   43.5560 C.2   281  PRO281      0.2244
     90  O        139.1690  109.6970   42.8230 O.2   281  PRO281     -0.2868
     91  CB       139.1640  108.1430   45.5370 C.3   281  PRO281      0.0268
     92  CG       139.7390  107.0800   46.4200 C.3   281  PRO281      0.0207
     93  CD       141.2160  107.3730   46.3500 C.3   281  PRO281      0.0892
     94  N        132.8480  113.3390   49.5090 N.3   324  ALA324     -0.1231
     95  CA       132.5280  112.7800   48.2020 C.3   324  ALA324      0.1694
     96  C        133.4640  111.6810   47.7020 C.2   324  ALA324      0.2592
     97  O        133.0320  110.7720   46.9970 O.2   324  ALA324     -0.2718
     98  CB       132.4680  113.8940   47.1710 C.3   324  ALA324      0.0304
     99  N        134.7430  111.7570   48.0470 N.am  325  PHE325     -0.1976
    100  CA       135.6800  110.7500   47.5660 C.3   325  PHE325      0.1639
    101  C        135.6740  109.4850   48.4080 C.2   325  PHE325      0.2290
    102  O        136.2300  108.4730   48.0050 O.2   325  PHE325     -0.2864
    103  CB       137.1060  111.3190   47.5080 C.3   325  PHE325      0.0560
    104  CG       137.2310  112.5450   46.6570 C.ar  325  PHE325     -0.0200
    105  CD1      136.8660  113.7940   47.1570 C.ar  325  PHE325     -0.0042
    106  CD2      137.6790  112.4500   45.3380 C.ar  325  PHE325     -0.0042
    107  CE1      136.9450  114.9340   46.3600 C.ar  325  PHE325     -0.0003
    108  CE2      137.7620  113.5810   44.5310 C.ar  325  PHE325     -0.0003
    109  CZ       137.3910  114.8300   45.0440 C.ar  325  PHE325     -0.0000
    110  N        134.2420  106.2660   46.8660 N.3   328  TYR328     -0.1241
    111  CA       134.8950  105.7930   45.6560 C.3   328  TYR328      0.1605
    112  C        136.1630  105.0140   45.9810 C.2   328  TYR328      0.2264
    113  O        137.1530  105.1010   45.2560 O.2   328  TYR328     -0.2867
    114  CB       135.2370  106.9580   44.7170 C.3   328  TYR328      0.0534
    115  CG       134.0440  107.5860   44.0170 C.ar  328  TYR328     -0.0201
    116  CD1      133.2610  108.5530   44.6510 C.ar  328  TYR328     -0.0009
    117  CD2      133.6980  107.2080   42.7170 C.ar  328  TYR328     -0.0009
    118  CE1      132.1630  109.1300   44.0060 C.ar  328  TYR328      0.0417
    119  CE2      132.6080  107.7750   42.0650 C.ar  328  TYR328      0.0417
    120  CZ       131.8470  108.7350   42.7120 C.ar  328  TYR328      0.1957
    121  OH       130.7790  109.3010   42.0590 O.3   328  TYR328     -0.2866
    122  N        122.9380  113.1820   47.5500 N.3   424  TRP424     -0.1241
    123  CA       123.7770  112.3970   48.4390 C.3   424  TRP424      0.1605
    124  C        123.2400  112.4620   49.8680 C.2   424  TRP424      0.2264
    125  O        122.5230  113.3960   50.2300 O.2   424  TRP424     -0.2867
    126  CB       125.2170  112.9030   48.3860 C.3   424  TRP424      0.0550
    127  CG       125.7960  112.9110   47.0070 C.ar  424  TRP424      0.0003
    128  CD1      125.7630  113.9420   46.1020 C.ar  424  TRP424      0.0946
    129  CD2      126.5090  111.8460   46.3700 C.ar  424  TRP424      0.0152
    130  NE1      126.4200  113.5850   44.9450 N.ar  424  TRP424     -0.2442
    131  CE2      126.8890  112.3030   45.0830 C.ar  424  TRP424      0.0810
    132  CE3      126.8710  110.5470   46.7650 C.ar  424  TRP424      0.0012
    133  CZ2      127.6070  111.5080   44.1850 C.ar  424  TRP424      0.0191
    134  CZ3      127.5920  109.7530   45.8690 C.ar  424  TRP424      0.0001
    135  CH2      127.9520  110.2390   44.5960 C.ar  424  TRP424      0.0015
    136  N        129.0910  119.0680   50.3510 N.3   431  MET431     -0.1230
    137  CA       129.9900  118.4360   49.4010 C.3   431  MET431      0.1702
    138  C        130.7650  119.2510   48.3880 C.2   431  MET431      0.2592
    139  O        130.3830  120.3560   48.0020 O.2   431  MET431     -0.2718
    140  CB       129.2330  117.3650   48.6370 C.3   431  MET431      0.0401
    141  CG       128.7530  116.2160   49.4890 C.3   431  MET431      0.0596
    142  SD       127.7540  115.1330   48.4840 S.3   431  MET431     -0.1393
    143  CE       128.9390  114.5510   47.2750 C.3   431  MET431      0.0692
    144  N        131.8580  118.6380   47.9510 N.am  432  HIS432     -0.1962
    145  CA       132.7570  119.1760   46.9450 C.3   432  HIS432      0.1787
    146  C        131.9640  119.3620   45.6510 C.2   432  HIS432      0.2620
    147  O        131.2590  118.4550   45.2170 O.2   432  HIS432     -0.2715
    148  CB       133.8970  118.1720   46.7360 C.3   432  HIS432      0.0785
    149  CG       134.8060  118.4940   45.5910 C.ar  432  HIS432      0.0821
    150  ND1      135.5640  119.6440   45.5370 N.ar  432  HIS432     -0.2267
    151  CD2      135.1290  117.7810   44.4850 C.ar  432  HIS432      0.1154
    152  CE1      136.3170  119.6220   44.4510 C.ar  432  HIS432      0.1986
    153  NE2      136.0730  118.5010   43.7960 N.ar  432  HIS432     -0.2212
    154  N        132.0660  120.5480   45.0590 N.am  433  GLY433     -0.1954
    155  CA       131.3740  120.8310   43.8120 C.3   433  GLY433      0.1869
    156  C        129.9310  121.3060   43.8960 C.2   433  GLY433      0.2309
    157  O        129.3320  121.6480   42.8790 O.2   433  GLY433     -0.2863
    158  N        128.7940  125.2870   43.0940 N.3   436  ILE436     -0.1245
    159  CA       128.7620  125.6680   41.6920 C.3   436  ILE436      0.1561
    160  C        127.3850  126.1350   41.2400 C.2   436  ILE436      0.2260
    161  O        127.2650  127.1650   40.5810 O.2   436  ILE436     -0.2867
    162  CB       129.2230  124.4960   40.8050 C.3   436  ILE436      0.0252
    163  CG1      130.6840  124.1570   41.1260 C.3   436  ILE436      0.0019
    164  CG2      129.0420  124.8450   39.3370 C.3   436  ILE436      0.0019
    165  CD1      131.2240  122.9470   40.3840 C.3   436  ILE436      0.0001
@<TRIPOS>BOND
     1    51    50    2
     2    52    53    1
     3    50    49    1
     4    53    54    1
     5    53    56    1
     6    55    54    2
     7    63    62    2
     8    48    49    1
     9    48    43   am
    10    59    57    1
    11    42    43    1
    12    42    41    1
    13    42    45    1
    14    43    44    2
    15    57    56    1
    16    57    58    1
    17    62    61    1
    18    64    61    1
    19    64    65    1
    20    67    65   ar
    21    67    69   ar
    22    45    47    1
    23    45    46    1
    24    61    60    1
    25    65    66   ar
    26    69    70   ar
    27    18    17    2
    28     1     2    1
    29    17    16    1
    30    32    31    2
    31    66    68   ar
    32    70    68   ar
    33    70    71    1
    34     4     3    2
    35     3     2    1
    36    36    35    2
    37     2     5    1
    38    29    30    1
    39    16    15    1
    40    16    19    1
    41    31    30    1
    42    31    33   am
    43    40    39    2
    44    39    38    1
    45    34    35    1
    46    34    33    1
    47    35    37   am
    48     5     6    1
    49    19    20    1
    50    37    38    1
    51    12    11    2
    52    25    27   ar
    53    25    22   ar
    54     6     8   ar
    55     6     7   ar
    56    11    10    1
    57    20    22   ar
    58    20    21   ar
    59    27    28   ar
    60    22    24   ar
    61    72    73    1
    62    75    74    2
    63   164   162    1
    64    21    23   ar
    65    28    26   ar
    66    14    13    1
    67    10    13    1
    68    10     9    1
    69    74    73    1
    70    74    81   am
    71    24    23   ar
    72    24    26   ar
    73    73    76    1
    74   165   163    1
    75    83    84    2
    76    83    82    1
    77    76    77    1
    78   161   160    2
    79    79    78   ar
    80   162   163    1
    81   162   159    1
    82    85    82    1
    83    85    86    1
    84   160   159    1
    85    81    82    1
    86   159   158    1
    87    78    77    1
    88    78    80   ar
    89   121   120    1
    90   119   120   ar
    91   119   117   ar
    92   120   118   ar
    93   117   115   ar
    94    90    89    2
    95   157   156    2
    96    89    88    1
    97   153   152   ar
    98   153   151   ar
    99   155   156    1
   100   155   154    1
   101   118   116   ar
   102   115   116   ar
   103   115   114    1
   104   133   135   ar
   105   133   131   ar
   106    88    87    1
   107    88    91    1
   108   152   150   ar
   109   151   149   ar
   110   108   109   ar
   111   108   106   ar
   112   135   134   ar
   113   114   111    1
   114    87    93    1
   115   130   131   ar
   116   130   128   ar
   117   109   107   ar
   118   154   146   am
   119   131   129   ar
   120   147   146    2
   121   113   112    2
   122   106   104   ar
   123    91    92    1
   124   150   149   ar
   125   149   148    1
   126   146   145    1
   127   111   112    1
   128   111   110    1
   129   134   132   ar
   130   128   127   ar
   131    93    92    1
   132   107   105   ar
   133   129   132   ar
   134   129   127   ar
   135   104   105   ar
   136   104   103    1
   137   148   145    1
   138   145   144    1
   139    97    96    2
   140   127   126    1
   141    98    95    1
   142   143   142    1
   143   103   100    1
   144   122   123    1
   145   100    99    1
   146   100   101    1
   147    96    99   am
   148    96    95    1
   149   144   138   am
   150   139   138    2
   151   102   101    2
   152    95    94    1
   153   126   123    1
   154   138   137    1
   155   123   124    1
   156   142   141    1
   157   140   137    1
   158   140   141    1
   159   137   136    1
   160   124   125    2
