@<TRIPOS>MOLECULE
tmp/1p0zG00.pdb
 140 130 0 0 0
SMALL
GASTEIGER

@<TRIPOS>ATOM
      1  N         28.9420   21.2390   39.5900 N.3    52  TYR52      -0.1241
      2  CA        27.9800   22.2750   39.9170 C.3    52  TYR52       0.1605
      3  C         28.5170   23.2140   40.9700 C.2    52  TYR52       0.2264
      4  O         29.5400   22.9230   41.6210 O.2    52  TYR52      -0.2867
      5  CB        26.6860   21.6350   40.4510 C.3    52  TYR52       0.0534
      6  CG        26.8630   20.8400   41.7620 C.ar   52  TYR52      -0.0201
      7  CD1       26.8780   21.4910   42.9940 C.ar   52  TYR52      -0.0009
      8  CD2       27.0000   19.4500   41.7430 C.ar   52  TYR52      -0.0009
      9  CE1       27.0230   20.7790   44.1960 C.ar   52  TYR52       0.0417
     10  CE2       27.1500   18.7150   42.9420 C.ar   52  TYR52       0.0417
     11  CZ        27.1580   19.4090   44.1620 C.ar   52  TYR52       0.1957
     12  OH        27.3090   18.7050   45.3500 O.3    52  TYR52      -0.2866
     13  N         26.6360   25.6590   44.0350 N.3    54  THR54      -0.1218
     14  CA        25.4000   26.0910   44.6920 C.3    54  THR54       0.1862
     15  C         25.7490   27.2780   45.5960 C.2    54  THR54       0.2287
     16  O         26.8080   27.2890   46.2160 O.2    54  THR54      -0.2866
     17  CB        24.7710   24.9560   45.5530 C.3    54  THR54       0.1770
     18  OG1       24.3130   23.8960   44.6970 O.3    54  THR54      -0.2211
     19  CG2       23.5710   25.4770   46.3860 C.3    54  THR54       0.0375
     20  N         18.5800   28.3830   48.7100 N.3    62  ARG62      -0.1245
     21  CA        19.3860   28.5770   47.5160 C.3    62  ARG62       0.1563
     22  C         19.1330   29.8850   46.7740 C.2    62  ARG62       0.2260
     23  O         17.9720   30.2300   46.4820 O.2    62  ARG62      -0.2867
     24  CB        19.2000   27.4180   46.5330 C.3    62  ARG62       0.0307
     25  CG        19.4250   26.0290   47.1630 C.3    62  ARG62       0.0489
     26  CD        19.6830   25.0080   46.0680 C.3    62  ARG62       0.2205
     27  NE        19.7600   23.6560   46.6080 N.pl3  62  ARG62      -0.0865
     28  CZ        18.7280   22.9620   47.0750 C.cat  62  ARG62       0.5346
     29  NH1       17.4990   23.4900   47.0590 N.pl3  62  ARG62       0.1354
     30  NH2       18.9190   21.7430   47.5840 N.pl3  62  ARG62       0.1354
     31  N         21.6000   27.7440   41.7960 N.3    65  HIS65      -0.1241
     32  CA        21.7370   26.2960   41.6270 C.3    65  HIS65       0.1621
     33  C         21.7460   26.0610   40.1250 C.2    65  HIS65       0.2264
     34  O         21.1730   26.8720   39.3500 O.2    65  HIS65      -0.2867
     35  CB        20.5640   25.5490   42.2740 C.3    65  HIS65       0.0745
     36  CG        20.7660   24.0640   42.3920 C.ar   65  HIS65       0.0817
     37  ND1       20.5270   23.1900   41.3530 N.ar   65  HIS65      -0.2268
     38  CD2       21.1610   23.2970   43.4440 C.ar   65  HIS65       0.1154
     39  CE1       20.7530   21.9520   41.7570 C.ar   65  HIS65       0.1986
     40  NE2       21.1360   21.9900   43.0240 N.ar   65  HIS65      -0.2212
     41  N         18.4140   24.1300   51.2810 N.3    75  MET75      -0.1230
     42  CA        19.4620   23.0920   51.1650 C.3    75  MET75       0.1702
     43  C         19.1850   22.1810   52.3740 C.2    75  MET75       0.2592
     44  O         19.5150   22.5410   53.5190 O.2    75  MET75      -0.2718
     45  CB        20.8470   23.7480   51.2760 C.3    75  MET75       0.0401
     46  CG        21.2060   24.5880   50.0430 C.3    75  MET75       0.0596
     47  SD        22.6300   25.6610   50.2140 S.3    75  MET75      -0.1393
     48  CE        24.0150   24.3950   50.0290 C.3    75  MET75       0.0692
     49  N         18.5520   21.0340   52.1440 N.am   76  GLU76      -0.1966
     50  CA        18.2000   20.1400   53.2510 C.3    76  GLU76       0.1733
     51  C         19.1160   18.9420   53.4480 C.2    76  GLU76       0.2616
     52  O         18.7830   18.0420   54.2170 O.2    76  GLU76      -0.2715
     53  CB        16.7400   19.6470   53.0900 C.3    76  GLU76       0.0429
     54  CG        15.6930   20.7700   53.2140 C.3    76  GLU76       0.1163
     55  CD        15.6620   21.3630   54.6090 C.2    76  GLU76       0.3649
     56  OE1       15.3740   20.6170   55.5660 O.co2  76  GLU76      -0.2457
     57  OE2       15.9330   22.5720   54.7570 O.co2  76  GLU76      -0.2457
     58  N         20.2630   18.9460   52.7580 N.am   77  GLY77      -0.1955
     59  CA        21.1890   17.8350   52.8620 C.3    77  GLY77       0.1869
     60  C         21.7450   17.5820   54.2550 C.2    77  GLY77       0.2309
     61  O         22.1490   16.4450   54.5580 O.2    77  GLY77      -0.2863
     62  N         24.5430   18.8740   55.4750 N.3    79  ASP79      -0.1225
     63  CA        25.9960   19.0020   55.5550 C.3    79  ASP79       0.1805
     64  C         26.4600   20.4470   55.3570 C.2    79  ASP79       0.2598
     65  O         27.6040   20.6910   54.9840 O.2    79  ASP79      -0.2718
     66  CB        26.6740   18.0310   54.5380 C.3    79  ASP79       0.1424
     67  CG        26.4390   18.4370   53.0670 C.2    79  ASP79       0.3668
     68  OD1       25.4160   19.1010   52.7650 O.co2  79  ASP79      -0.2456
     69  OD2       27.2870   18.0780   52.2070 O.co2  79  ASP79      -0.2456
     70  N         25.5730   21.4170   55.6410 N.am   80  SER80      -0.1952
     71  CA        25.9170   22.8180   55.4690 C.3    80  SER80       0.1924
     72  C         26.0120   23.5650   56.7970 C.2    80  SER80       0.2314
     73  O         26.4500   24.7190   56.8260 O.2    80  SER80      -0.2863
     74  CB        24.8720   23.5520   54.6020 C.3    80  SER80       0.2116
     75  OG        24.8090   23.0170   53.2870 O.3    80  SER80      -0.2180
     76  N         28.0320   13.8550   49.7350 N.3    94  ARG94      -0.1245
     77  CA        26.6220   13.5460   49.8720 C.3    94  ARG94       0.1563
     78  C         25.9380   13.3600   48.5300 C.2    94  ARG94       0.2260
     79  O         26.3270   13.9490   47.5130 O.2    94  ARG94      -0.2867
     80  CB        25.8470   14.6420   50.6410 C.3    94  ARG94       0.0307
     81  CG        24.7650   14.0530   51.5690 C.3    94  ARG94       0.0489
     82  CD        23.9010   15.1560   52.1870 C.3    94  ARG94       0.2205
     83  NE        22.9610   15.7080   51.2070 N.pl3  94  ARG94      -0.0865
     84  CZ        21.7830   15.1660   50.9060 C.cat  94  ARG94       0.5346
     85  NH1       21.3600   14.0440   51.4910 N.pl3  94  ARG94       0.1354
     86  NH2       21.0110   15.7630   49.9920 N.pl3  94  ARG94       0.1354
     87  N         23.0170   14.4360   46.7950 N.3    96  GLY96      -0.1210
     88  CA        21.9250   15.3890   46.6960 C.3    96  GLY96       0.1956
     89  C         21.1960   15.0790   45.3780 C.2    96  GLY96       0.2613
     90  O         21.4020   14.0180   44.7760 O.2    96  GLY96      -0.2717
     91  N         20.3570   16.0160   44.9310 N.am   97  SER97      -0.1938
     92  CA        19.6100   15.8550   43.6820 C.3    97  SER97       0.2055
     93  C         20.4960   15.5110   42.4750 C.2    97  SER97       0.2643
     94  O         20.0540   14.7760   41.5660 O.2    97  SER97      -0.2714
     95  CB        18.8160   17.1470   43.3930 C.3    97  SER97       0.2130
     96  OG        19.6290   18.2030   42.8680 O.3    97  SER97      -0.2179
     97  N         21.7300   16.0140   42.4670 N.am   98  LEU98      -0.1963
     98  CA        22.6520   15.7890   41.3590 C.3    98  LEU98       0.1728
     99  C         23.5020   14.5360   41.4420 C.2    98  LEU98       0.2616
    100  O         24.3570   14.3090   40.5780 O.2    98  LEU98      -0.2715
    101  CB        23.5400   17.0140   41.1710 C.3    98  LEU98       0.0311
    102  CG        22.7400   18.3180   40.9640 C.3    98  LEU98       0.0022
    103  CD1       23.6600   19.5170   40.9470 C.3    98  LEU98       0.0001
    104  CD2       21.9910   18.2320   39.6180 C.3    98  LEU98       0.0001
    105  N         23.2670   13.7130   42.4630 N.am   99  GLY99      -0.1955
    106  CA        24.0160   12.4720   42.5830 C.3    99  GLY99       0.1869
    107  C         25.1020   12.5400   43.6590 C.2    99  GLY99       0.2309
    108  O         25.4830   13.6250   44.0980 O.2    99  GLY99      -0.2863
    109  N         28.1930   13.1910   45.4340 N.3   101  SER101     -0.1217
    110  CA        29.2370   14.1130   45.0140 C.3   101  SER101      0.1889
    111  C         30.1090   14.6140   46.1590 C.2   101  SER101      0.2288
    112  O         29.6710   14.6450   47.3240 O.2   101  SER101     -0.2866
    113  CB        28.5970   15.3680   44.3790 C.3   101  SER101      0.2089
    114  OG        27.6300   15.9790   45.2750 O.3   101  SER101     -0.2183
    115  N         31.8420   17.7220   47.8550 N.3   103  ARG103     -0.1245
    116  CA        31.6000   19.1550   47.8860 C.3   103  ARG103      0.1563
    117  C         32.6750   19.8930   48.6660 C.2   103  ARG103      0.2260
    118  O         33.1220   19.4010   49.7080 O.2   103  ARG103     -0.2867
    119  CB        30.2860   19.4690   48.6300 C.3   103  ARG103      0.0307
    120  CG        29.0490   18.7490   48.1200 C.3   103  ARG103      0.0489
    121  CD        28.6810   17.4380   48.8590 C.3   103  ARG103      0.2205
    122  NE        27.4330   16.9570   48.2470 N.pl3 103  ARG103     -0.0865
    123  CZ        26.2200   17.3840   48.5920 C.cat 103  ARG103      0.5346
    124  NH1       26.0470   18.2490   49.6040 N.pl3 103  ARG103      0.1354
    125  NH2       25.1740   17.0950   47.7960 N.pl3 103  ARG103      0.1354
    126  N         32.9060   23.2590   50.7100 N.3   105  LYS105     -0.1245
    127  CA        31.9610   24.2490   51.2230 C.3   105  LYS105      0.1561
    128  C         32.6970   25.3350   51.9850 C.2   105  LYS105      0.2260
    129  O         33.6540   25.0480   52.7190 O.2   105  LYS105     -0.2867
    130  CB        30.9850   23.5620   52.1710 C.3   105  LYS105      0.0271
    131  CG        30.2730   22.3590   51.6110 C.3   105  LYS105      0.0035
    132  CD        28.7760   22.4900   51.8400 C.3   105  LYS105      0.0206
    133  CE        28.0420   21.2130   51.6060 C.3   105  LYS105      0.1093
    134  NZ        26.5720   21.5090   51.6980 N.3   105  LYS105     -0.1314
    135  N         28.9910   26.1110   47.7020 N.3   120  SER120     -0.1217
    136  CA        29.3070   24.6830   47.6440 C.3   120  SER120      0.1889
    137  C         29.7150   24.3930   46.1930 C.2   120  SER120      0.2288
    138  O         28.9400   24.6470   45.2600 O.2   120  SER120     -0.2866
    139  CB        28.0850   23.8390   48.0190 C.3   120  SER120      0.2089
    140  OG        28.3590   22.4430   47.9160 O.3   120  SER120     -0.2183
@<TRIPOS>BOND
     1    34    33    2
     2     1     2    1
     3   104   102    1
     4     2     5    1
     5     2     3    1
     6    33    32    1
     7     5     6    1
     8   100    99    2
     9   103   102    1
    10   102   101    1
    11     3     4    2
    12   101    98    1
    13    37    39   ar
    14    37    36   ar
    15    98    99    1
    16    98    97    1
    17    99   105   am
    18    94    93    2
    19    32    31    1
    20    32    35    1
    21     8     6   ar
    22     8    10   ar
    23    39    40   ar
    24     6     7   ar
    25    35    36    1
    26    36    38   ar
    27   105   106    1
    28    97    93   am
    29    93    92    1
    30   106   107    1
    31    96    95    1
    32    10    11   ar
    33     7     9   ar
    34    40    38   ar
    35    95    92    1
    36   107   108    2
    37    92    91    1
    38    13    14    1
    39    11     9   ar
    40    11    12    1
    41   113   110    1
    42   113   114    1
    43    14    17    1
    44    14    15    1
    45    18    17    1
    46    90    89    2
    47    91    89   am
    48   110   109    1
    49   110   111    1
    50   138   137    2
    51    89    88    1
    52    17    19    1
    53    15    16    2
    54    26    27    1
    55    26    25    1
    56   111   112    2
    57   137   136    1
    58    23    22    2
    59    24    25    1
    60    24    21    1
    61    27    28    2
    62    88    87    1
    63    22    21    1
    64    29    28    1
    65    28    30    1
    66    79    78    2
    67    21    20    1
    68   136   135    1
    69   136   139    1
    70   125   123    1
    71   115   116    1
    72   116   119    1
    73   116   117    1
    74   140   139    1
    75   120   119    1
    76   120   121    1
    77   122   123    2
    78   122   121    1
    79    78    77    1
    80   123   124    1
    81   117   118    2
    82    76    77    1
    83    77    80    1
    84    86    84    1
    85    48    47    1
    86    46    47    1
    87    46    45    1
    88    80    81    1
    89   126   127    1
    90    84    83    2
    91    84    85    1
    92    42    45    1
    93    42    41    1
    94    42    43    1
    95    83    82    1
    96   127   128    1
    97   127   130    1
    98    81    82    1
    99   133   134    1
   100   133   132    1
   101   131   132    1
   102   131   130    1
   103   128   129    2
   104    49    43   am
   105    49    50    1
   106    69    67   ar
   107    43    44    2
   108    58    59    1
   109    58    51   am
   110    68    67   ar
   111    59    60    1
   112    67    66    1
   113    53    54    1
   114    53    50    1
   115    54    55    1
   116    50    51    1
   117    75    74    1
   118    51    52    2
   119    60    61    2
   120    66    63    1
   121    74    71    1
   122    55    57   ar
   123    55    56   ar
   124    65    64    2
   125    64    63    1
   126    64    70   am
   127    71    70    1
   128    71    72    1
   129    62    63    1
   130    72    73    2
