@<TRIPOS>MOLECULE
tmp/1p11A00.pdb
 196 191 0 0 0
SMALL
GASTEIGER

@<TRIPOS>ATOM
      1  N          7.6350   19.4010   12.8600 N.3    14  ALA14      -0.1231
      2  CA         6.9670   20.7260   12.8170 C.3    14  ALA14       0.1694
      3  C          7.9470   21.8330   12.4750 C.2    14  ALA14       0.2593
      4  O          8.0240   22.1970   11.3050 O.2    14  ALA14      -0.2718
      5  CB         6.1640   20.9780   14.0940 C.3    14  ALA14       0.0304
      6  N          8.6880   22.3410   13.3950 N.am   15  SER15      -0.1938
      7  CA         9.6070   23.4410   13.2350 C.3    15  SER15       0.2055
      8  C         10.8220   23.0930   12.4060 C.2    15  SER15       0.2643
      9  O         11.1760   21.9350   12.3880 O.2    15  SER15      -0.2714
     10  CB        10.1130   23.9150   14.6130 C.3    15  SER15       0.2130
     11  OG         9.0620   24.5120   15.3840 O.3    15  SER15      -0.2179
     12  N         11.4140   24.1360   11.8170 N.am   16  LEU16      -0.1963
     13  CA        12.6540   23.8800   11.0200 C.3    16  LEU16       0.1728
     14  C         13.7530   24.6750   11.6970 C.2    16  LEU16       0.2616
     15  O         13.4170   25.7930   12.1690 O.2    16  LEU16      -0.2715
     16  CB        12.4440   24.4000    9.5920 C.3    16  LEU16       0.0311
     17  CG        11.3700   23.7740    8.7280 C.3    16  LEU16       0.0022
     18  CD1       11.5060   24.2780    7.2930 C.3    16  LEU16       0.0001
     19  CD2       11.5640   22.2810    8.6860 C.3    16  LEU16       0.0001
     20  N         14.9140   24.1180   11.7100 N.am   17  CYS17      -0.1968
     21  CA        16.1060   24.8730   12.2190 C.3    17  CYS17       0.1712
     22  C         17.3050   24.5000   11.3090 C.2    17  CYS17       0.2296
     23  O         17.1400   23.6520   10.3660 O.2    17  CYS17      -0.2864
     24  CB        16.4480   24.5780   13.6790 C.3    17  CYS17       0.0983
     25  SG        15.4650   25.7240   14.7060 S.3    17  CYS17      -0.0798
     26  N         16.3630   27.2380   21.3070 N.3    36  HIS36      -0.1226
     27  CA        14.9730   27.5610   20.9350 C.3    36  HIS36       0.1752
     28  C         14.4580   26.4970   19.9810 C.2    36  HIS36       0.2596
     29  O         13.2050   26.3150   19.9910 O.2    36  HIS36      -0.2718
     30  CB        14.8560   28.9840   20.3990 C.3    36  HIS36       0.0759
     31  CG        13.4610   29.2860   19.9410 C.ar   36  HIS36       0.0818
     32  ND1       13.1250   29.5450   18.6420 N.ar   36  HIS36      -0.2268
     33  CD2       12.3310   29.3530   20.6630 C.ar   36  HIS36       0.1154
     34  CE1       11.8190   29.7790   18.5830 C.ar   36  HIS36       0.1986
     35  NE2       11.3250   29.6570   19.8010 N.ar   36  HIS36      -0.2212
     36  N         15.3110   25.8360   19.2080 N.am   37  CYS37      -0.1970
     37  CA        14.8330   24.8150   18.2680 C.3    37  CYS37       0.1712
     38  C         14.0840   23.6120   18.8250 C.2    37  CYS37       0.2296
     39  O         13.2510   23.0830   18.0480 O.2    37  CYS37      -0.2864
     40  CB        15.9300   24.2740   17.3130 C.3    37  CYS37       0.0983
     41  SG        16.6650   25.6710   16.3930 S.3    37  CYS37      -0.0798
     42  N         17.1670   27.4100   27.2180 N.3    59  PHE59      -0.1298
     43  CA        16.5640   28.5730   26.5200 C.3    59  PHE59       0.1290
     44  C         15.3240   28.9420   27.3430 C.3    59  PHE59       0.2013
     45  O         14.6420   27.9750   27.6470 O.3    59  PHE59      -0.2188
     46  CB        16.0620   28.2090   25.1100 C.3    59  PHE59       0.0480
     47  CG        15.3200   29.3460   24.4600 C.ar   59  PHE59      -0.0206
     48  CD1       16.0150   30.3840   23.8340 C.ar   59  PHE59      -0.0042
     49  CD2       13.9100   29.3570   24.4840 C.ar   59  PHE59      -0.0042
     50  CE1       15.2920   31.4530   23.2270 C.ar   59  PHE59      -0.0003
     51  CE2       13.2320   30.4290   23.8950 C.ar   59  PHE59      -0.0003
     52  CZ        13.8960   31.4590   23.2630 C.ar   59  PHE59      -0.0000
     53  N         20.9910   30.3190   24.7290 N.3    63  ASP63      -0.1239
     54  CA        20.2270   29.7810   23.5770 C.3    63  ASP63       0.1674
     55  C         21.1210   28.6860   22.9760 C.2    63  ASP63       0.2266
     56  O         21.8030   29.0280   22.0100 O.2    63  ASP63      -0.2867
     57  CB        19.8530   30.8780   22.5870 C.3    63  ASP63       0.1410
     58  CG        18.8810   30.4080   21.5160 C.2    63  ASP63       0.3668
     59  OD1       18.4570   29.2180   21.5960 O.co2  63  ASP63      -0.2456
     60  OD2       18.4930   31.1710   20.5870 O.co2  63  ASP63      -0.2456
     61  N         19.3590   27.2840    6.4410 N.3   105  ARG105     -0.1301
     62  CA        18.5000   26.8130    5.4010 C.3   105  ARG105      0.1248
     63  C         17.6450   27.8950    4.7720 C.3   105  ARG105      0.2009
     64  O         17.1020   27.5380    3.7440 O.3   105  ARG105     -0.2188
     65  CB        17.6670   25.6230    5.8690 C.3   105  ARG105      0.0254
     66  CG        16.8320   25.7140    7.1490 C.3   105  ARG105      0.0485
     67  CD        15.5720   26.4850    6.8590 C.3   105  ARG105      0.2205
     68  NE        14.8350   25.7670    5.8290 N.pl3 105  ARG105     -0.0865
     69  CZ        13.8790   26.2760    5.0530 C.cat 105  ARG105      0.5346
     70  NH1       13.5890   27.5700    5.2100 N.pl3 105  ARG105      0.1354
     71  NH2       13.2070   25.4570    4.2080 N.pl3 105  ARG105      0.1354
     72  N         19.0370   39.8750   24.2720 N.3   121  ALA121     -0.1231
     73  CA        17.8770   39.8830   23.3370 C.3   121  ALA121      0.1694
     74  C         16.6760   39.7010   24.2900 C.2   121  ALA121      0.2592
     75  O         16.6320   38.7520   25.1140 O.2   121  ALA121     -0.2718
     76  CB        17.9030   38.7560   22.3020 C.3   121  ALA121      0.0304
     77  N         15.6680   40.5660   24.1900 N.am  122  ASN122     -0.1960
     78  CA        14.4660   40.4040   25.0410 C.3   122  ASN122      0.1819
     79  C         13.4530   39.6410   24.2050 C.2   122  ASN122      0.2621
     80  O         12.6290   40.3450   23.5810 O.2   122  ASN122     -0.2715
     81  CB        13.9570   41.7700   25.5290 C.3   122  ASN122      0.1195
     82  CG        14.9280   42.1910   26.6500 C.2   122  ASN122      0.2630
     83  OD1       15.1470   41.5520   27.7070 O.2   122  ASN122     -0.2716
     84  ND2       15.6140   43.2980   26.4390 N.am  122  ASN122     -0.0877
     85  N         13.5440   38.3470   24.1050 N.am  123  TYR123     -0.1960
     86  CA        12.5490   37.6320   23.2810 C.3   123  TYR123      0.1771
     87  C         11.2540   37.5320   24.1290 C.2   123  TYR123      0.2619
     88  O         11.3450   37.7120   25.3580 O.2   123  TYR123     -0.2715
     89  CB        13.1030   36.2380   22.9850 C.3   123  TYR123      0.0574
     90  CG        14.3080   36.1900   22.0790 C.ar  123  TYR123     -0.0198
     91  CD1       14.5360   37.0570   21.0320 C.ar  123  TYR123     -0.0009
     92  CD2       15.2740   35.1960   22.3730 C.ar  123  TYR123     -0.0009
     93  CE1       15.6750   36.9270   20.2190 C.ar  123  TYR123      0.0417
     94  CE2       16.4380   35.0790   21.5850 C.ar  123  TYR123      0.0417
     95  CZ        16.6110   35.9310   20.5090 C.ar  123  TYR123      0.1957
     96  OH        17.7240   35.8070   19.7220 O.3   123  TYR123     -0.2866
     97  N         10.1540   37.2150   23.4290 N.am  124  ALA124     -0.1963
     98  CA         8.8810   37.0490   24.1890 C.3   124  ALA124      0.1728
     99  C          9.0080   36.0150   25.2960 C.2   124  ALA124      0.2616
    100  O          8.4010   36.1690   26.3980 O.2   124  ALA124     -0.2715
    101  CB         7.8410   36.5260   23.1780 C.3   124  ALA124      0.0334
    102  N          9.7770   34.9460   25.1020 N.am  125  GLU125     -0.1977
    103  CA         9.9360   33.8960   26.0950 C.3   125  GLU125      0.1602
    104  C         10.7240   34.3150   27.3500 C.2   125  GLU125      0.2287
    105  O         10.6110   33.6710   28.4020 O.2   125  GLU125     -0.2864
    106  CB        10.7190   32.6950   25.5100 C.3   125  GLU125      0.0415
    107  CG         9.9130   31.9640   24.4290 C.3   125  GLU125      0.1163
    108  CD        10.1590   32.5720   23.0720 C.2   125  GLU125      0.3649
    109  OE1       10.6680   33.6330   22.8020 O.co2 125  GLU125     -0.2457
    110  OE2        9.7320   31.7770   22.1900 O.co2 125  GLU125     -0.2457
    111  N         19.8520   37.3830    7.9960 N.3   138  MET138     -0.1230
    112  CA        19.3520   36.0400    8.3670 C.3   138  MET138      0.1702
    113  C         17.8150   36.0550    8.3140 C.2   138  MET138      0.2593
    114  O         17.2550   37.1740    8.2710 O.2   138  MET138     -0.2718
    115  CB        19.8200   35.7730    9.8170 C.3   138  MET138      0.0401
    116  CG        19.4700   36.9010   10.7910 C.3   138  MET138      0.0596
    117  SD        17.8610   36.5000   11.5830 S.3   138  MET138     -0.1393
    118  CE        17.5000   38.0000   12.5070 C.3   138  MET138      0.0692
    119  N         17.1850   34.8960    8.3820 N.am  139  GLY139     -0.1942
    120  CA        15.7220   34.8450    8.3410 C.3   139  GLY139      0.2014
    121  C         15.1580   33.6960    9.1470 C.2   139  GLY139      0.2639
    122  O         15.8950   32.8620    9.7040 O.2   139  GLY139     -0.2714
    123  N         13.8530   33.6000    9.1990 N.am  140  ARG140     -0.1963
    124  CA        13.1520   32.5320    9.9180 C.3   140  ARG140      0.1729
    125  C         13.6100   31.1930    9.3240 C.2   140  ARG140      0.2617
    126  O         13.4820   30.9580    8.0860 O.2   140  ARG140     -0.2715
    127  CB        11.6390   32.7570    9.7180 C.3   140  ARG140      0.0348
    128  CG        11.1230   33.9710   10.5350 C.3   140  ARG140      0.0492
    129  CD         9.6590   33.9850   10.1600 C.3   140  ARG140      0.2205
    130  NE         9.1220   35.2540   10.6080 N.pl3 140  ARG140     -0.0865
    131  CZ         8.1880   35.9170    9.8720 C.cat 140  ARG140      0.5346
    132  NH1        7.6070   35.3640    8.7860 N.pl3 140  ARG140      0.1354
    133  NH2        7.8460   37.1580   10.2750 N.pl3 140  ARG140      0.1354
    134  N         14.1310   30.3370   10.2290 N.am  141  GLY141     -0.1940
    135  CA        14.6320   29.0300    9.7960 C.3   141  GLY141      0.2014
    136  C         16.1760   28.9250    9.9040 C.2   141  GLY141      0.2639
    137  O         16.6680   27.7570    9.8770 O.2   141  GLY141     -0.2714
    138  N         16.8420   30.0570    9.9560 N.am  142  ASP142     -0.1957
    139  CA        18.2960   30.0650   10.0890 C.3   142  ASP142      0.1840
    140  C         18.7640   29.7310   11.5200 C.2   142  ASP142      0.2622
    141  O         20.0010   29.5170   11.6530 O.2   142  ASP142     -0.2715
    142  CB        18.8500   31.4600    9.6620 C.3   142  ASP142      0.1450
    143  CG        18.7980   31.6400    8.1270 C.2   142  ASP142      0.3671
    144  OD1       18.8400   30.6380    7.3390 O.co2 142  ASP142     -0.2456
    145  OD2       18.7170   32.8470    7.6950 O.co2 142  ASP142     -0.2456
    146  N         17.8650   29.7450   12.4790 N.am  143  SER143     -0.1950
    147  CA        18.2730   29.4910   13.8860 C.3   143  SER143      0.1924
    148  C         19.0540   28.1890   14.0050 C.2   143  SER143      0.2314
    149  O         18.6740   27.2130   13.3280 O.2   143  SER143     -0.2863
    150  CB        17.1120   29.3370   14.8610 C.3   143  SER143      0.2116
    151  OG        16.3260   30.5550   14.7900 O.3   143  SER143     -0.2180
    152  N         23.3440   30.5840   15.3450 N.3   158  MET158     -0.1230
    153  CA        22.3000   31.6330   15.1150 C.3   158  MET158      0.1702
    154  C         21.1880   31.5790   16.1770 C.2   158  MET158      0.2593
    155  O         20.5710   30.5280   16.3650 O.2   158  MET158     -0.2718
    156  CB        21.7390   31.4230   13.6740 C.3   158  MET158      0.0401
    157  CG        20.6220   32.4580   13.3780 C.3   158  MET158      0.0596
    158  SD        21.4050   33.9730   12.6950 S.3   158  MET158     -0.1393
    159  CE        20.7500   35.1630   13.8090 C.3   158  MET158      0.0692
    160  N         20.8980   32.7180   16.8570 N.am  159  SER159     -0.1938
    161  CA        19.8310   32.7250   17.8440 C.3   159  SER159      0.2055
    162  C         18.6280   33.5400   17.2950 C.2   159  SER159      0.2644
    163  O         17.5540   32.9530   17.1280 O.2   159  SER159     -0.2714
    164  CB        20.3230   33.4340   19.1080 C.3   159  SER159      0.2130
    165  OG        19.2040   33.4920   20.0350 O.3   159  SER159     -0.2179
    166  N         18.8200   34.8360   17.0040 N.am  160  GLY160     -0.1939
    167  CA        17.6770   35.6180   16.5150 C.3   160  GLY160      0.2014
    168  C         18.1340   37.0360   16.1810 C.2   160  GLY160      0.2639
    169  O         19.3060   37.3580   15.9390 O.2   160  GLY160     -0.2714
    170  N         17.1120   37.8880   16.1090 N.am  161  GLY161     -0.1939
    171  CA        17.3030   39.2980   15.7670 C.3   161  GLY161      0.2014
    172  C         16.1040   40.0370   15.1380 C.2   161  GLY161      0.2639
    173  O         15.0070   39.5400   15.3920 O.2   161  GLY161     -0.2714
    174  N         16.4610   41.1540   14.4920 N.am  162  ASN162     -0.1958
    175  CA        15.3190   41.9900   13.9970 C.3   162  ASN162      0.1819
    176  C         14.7670   41.6600   12.6230 C.2   162  ASN162      0.2621
    177  O         14.9360   42.3480   11.6160 O.2   162  ASN162     -0.2715
    178  CB        15.7700   43.4380   14.1620 C.3   162  ASN162      0.1195
    179  CG        16.9150   43.8050   13.2630 C.2   162  ASN162      0.2630
    180  OD1       17.7780   43.0450   12.7980 O.2   162  ASN162     -0.2716
    181  ND2       16.9300   45.1300   12.9010 N.am  162  ASN162     -0.0877
    182  N         14.0880   40.5300   12.6290 N.am  163  VAL163     -0.1977
    183  CA        13.4390   40.0490   11.4020 C.3   163  VAL163      0.1596
    184  C         12.3610   41.0960   11.0820 C.2   163  VAL163      0.2287
    185  O         11.6680   41.5880   11.9950 O.2   163  VAL163     -0.2864
    186  CB        12.8890   38.6140   11.4700 C.3   163  VAL163      0.0276
    187  CG1       13.8670   37.6450   12.0810 C.3   163  VAL163      0.0022
    188  CG2       11.6770   38.5090   12.3500 C.3   163  VAL163      0.0022
    189  N         21.9450   38.0640   16.0290 N.3   180  LEU180     -0.1245
    190  CA        22.5880   37.5850   17.2480 C.3   180  LEU180      0.1561
    191  C         22.9230   36.0990   17.2950 C.2   180  LEU180      0.2260
    192  O         22.0870   35.3050   16.8260 O.2   180  LEU180     -0.2867
    193  CB        21.6940   37.9840   18.4180 C.3   180  LEU180      0.0270
    194  CG        21.2060   39.4350   18.4890 C.3   180  LEU180      0.0019
    195  CD1       20.0330   39.5320   19.4980 C.3   180  LEU180      0.0001
    196  CD2       22.3750   40.3570   18.7200 C.3   180  LEU180      0.0001
@<TRIPOS>BOND
     1    64    63    1
     2    71    69    1
     3    63    62    1
     4    69    70    1
     5    69    68    2
     6    62    65    1
     7    62    61    1
     8    68    67    1
     9    65    66    1
    10    67    66    1
    11    18    17    1
    12   144   143   ar
    13   145   143   ar
    14   111   112    1
    15   126   125    2
    16   143   142    1
    17   114   113    2
    18   113   112    1
    19   113   119   am
    20   120   119    1
    21   120   121    1
    22   112   115    1
    23    19    17    1
    24    17    16    1
    25   132   131    1
    26   121   123   am
    27   121   122    2
    28   123   124    1
    29   125   124    1
    30   125   134   am
    31    16    13    1
    32   142   139    1
    33   127   124    1
    34   127   128    1
    35   135   136    1
    36   135   134    1
    37   115   116    1
    38   131   133    1
    39   131   130    2
    40   137   136    2
    41   136   138   am
    42   138   139    1
    43   139   140    1
    44   129   128    1
    45   129   130    1
    46    23    22    2
    47   116   117    1
    48    13    14    1
    49    13    12    1
    50   184   183    1
    51   184   185    2
    52     4     3    2
    53    22    21    1
    54   183   186    1
    55   183   182    1
    56   186   187    1
    57   186   188    1
    58   140   141    2
    59   140   146   am
    60   117   118    1
    61   177   176    2
    62    14    20   am
    63    14    15    2
    64    20    21    1
    65    12     8   am
    66    21    24    1
    67     9     8    2
    68     8     7    1
    69     3     2    1
    70     3     6   am
    71   146   147    1
    72   176   182   am
    73   176   175    1
    74   158   157    1
    75   158   159    1
    76   180   179    2
    77     2     1    1
    78     2     5    1
    79   181   179   am
    80     7     6    1
    81     7    10    1
    82   179   178    1
    83   149   148    2
    84   157   156    1
    85   156   153    1
    86    24    25    1
    87   147   148    1
    88   147   150    1
    89   175   178    1
    90   175   174    1
    91   174   172   am
    92    10    11    1
    93    25    41    1
    94   151   150    1
    95   153   152    1
    96   153   154    1
    97   172   173    2
    98   172   171    1
    99   171   170    1
   100   169   168    2
   101   189   190    1
   102   170   168   am
   103   154   155    2
   104   154   160   am
   105   168   167    1
   106    41    40    1
   107   167   166    1
   108   192   191    2
   109   160   161    1
   110   166   162   am
   111   163   162    2
   112   190   191    1
   113   190   193    1
   114   162   161    1
   115    40    37    1
   116   161   164    1
   117    39    38    2
   118    37    38    1
   119    37    36    1
   120   193   194    1
   121   194   196    1
   122   194   195    1
   123    34    32   ar
   124    34    35   ar
   125    32    31   ar
   126   164   165    1
   127    36    28   am
   128    96    95    1
   129    35    33   ar
   130    31    30    1
   131    31    33   ar
   132    28    29    2
   133    28    27    1
   134    93    95   ar
   135    93    91   ar
   136    30    27    1
   137    95    94   ar
   138    60    58   ar
   139    27    26    1
   140    91    90   ar
   141    58    59   ar
   142    58    57    1
   143    94    92   ar
   144    56    55    2
   145    90    92   ar
   146    90    89    1
   147   110   108   ar
   148    76    73    1
   149    57    54    1
   150   109   108   ar
   151    55    54    1
   152    89    86    1
   153   108   107    1
   154   101    98    1
   155    50    52   ar
   156    50    48   ar
   157    52    51   ar
   158    86    85    1
   159    86    87    1
   160    73    72    1
   161    73    74    1
   162    97    87   am
   163    97    98    1
   164    54    53    1
   165    80    79    2
   166    48    47   ar
   167    51    49   ar
   168    85    79   am
   169    87    88    2
   170    98    99    1
   171    77    74   am
   172    77    78    1
   173    79    78    1
   174    74    75    2
   175   107   106    1
   176    47    49   ar
   177    47    46    1
   178    78    81    1
   179   102    99   am
   180   102   103    1
   181    46    43    1
   182    99   100    2
   183   106   103    1
   184    81    82    1
   185   103   104    1
   186    84    82   am
   187    43    42    1
   188    43    44    1
   189    82    83    2
   190    44    45    1
   191   104   105    2
