@<TRIPOS>MOLECULE
tmp/1p13A00.pdb
 109 106 0 0 0
SMALL
GASTEIGER

@<TRIPOS>ATOM
      1  N         29.9950   52.2220   23.1110 N.3    56  LYS56      -0.1231
      2  CA        28.7890   52.8530   22.6200 C.3    56  LYS56       0.1693
      3  C         28.2780   52.0230   21.4600 C.2    56  LYS56       0.2592
      4  O         29.0500   51.5540   20.6230 O.2    56  LYS56      -0.2718
      5  CB        29.0720   54.3070   22.1670 C.3    56  LYS56       0.0285
      6  CG        29.4000   55.2610   23.3380 C.3    56  LYS56       0.0035
      7  CD        30.0080   56.5660   22.8380 C.3    56  LYS56       0.0206
      8  CE        30.1650   57.5840   23.9490 C.3    56  LYS56       0.1093
      9  NZ        30.7570   56.9660   25.1500 N.3    56  LYS56      -0.1314
     10  N         26.9540   51.8330   21.4170 N.am   57  HIS57      -0.1962
     11  CA        26.3120   51.0520   20.3700 C.3    57  HIS57       0.1787
     12  C         25.3330   51.9290   19.5890 C.2    57  HIS57       0.2620
     13  O         24.4420   52.5600   20.1580 O.2    57  HIS57      -0.2715
     14  CB        25.5620   49.8910   20.9950 C.3    57  HIS57       0.0785
     15  CG        26.4150   49.0220   21.8700 C.ar   57  HIS57       0.0821
     16  ND1       27.1400   47.9590   21.3800 N.ar   57  HIS57      -0.2267
     17  CD2       26.5970   49.0160   23.2180 C.ar   57  HIS57       0.1154
     18  CE1       27.7140   47.3210   22.3850 C.ar   57  HIS57       0.1986
     19  NE2       27.3970   47.9450   23.5120 N.ar   57  HIS57      -0.2212
     20  N         25.5010   51.9510   18.2700 N.am   58  TYR58      -0.1960
     21  CA        24.6570   52.7630   17.4100 C.3    58  TYR58       0.1771
     22  C         23.8780   51.8840   16.4650 C.2    58  TYR58       0.2619
     23  O         24.4560   51.0430   15.7620 O.2    58  TYR58      -0.2715
     24  CB        25.5010   53.7190   16.5470 C.3    58  TYR58       0.0574
     25  CG        26.3250   54.6830   17.3530 C.ar   58  TYR58      -0.0198
     26  CD1       27.6120   54.3370   17.7960 C.ar   58  TYR58      -0.0009
     27  CD2       25.8050   55.9170   17.7280 C.ar   58  TYR58      -0.0009
     28  CE1       28.3410   55.1910   18.5850 C.ar   58  TYR58       0.0417
     29  CE2       26.5340   56.7840   18.5290 C.ar   58  TYR58       0.0417
     30  CZ        27.8040   56.4120   18.9510 C.ar   58  TYR58       0.1957
     31  OH        28.5460   57.2540   19.7640 O.3    58  TYR58      -0.2866
     32  N         22.5630   52.0570   16.4350 N.am   59  LYS59      -0.1977
     33  CA        21.7730   51.2970   15.4760 C.3    59  LYS59       0.1596
     34  C         22.0630   51.9190   14.0890 C.2    59  LYS59       0.2287
     35  O         22.1060   53.1480   13.9410 O.2    59  LYS59      -0.2864
     36  CB        20.2670   51.4300   15.7570 C.3    59  LYS59       0.0298
     37  CG        19.7780   50.7650   17.0520 C.3    59  LYS59       0.0038
     38  CD        18.6120   49.8280   16.7720 C.3    59  LYS59       0.0206
     39  CE        18.0790   49.1240   18.0200 C.3    59  LYS59       0.1093
     40  NZ        17.3010   50.0110   18.9440 N.3    59  LYS59      -0.1314
     41  N         20.4650   52.5640   11.0010 N.3    61  ARG61      -0.1245
     42  CA        19.1330   52.7250   10.4220 C.3    61  ARG61       0.1563
     43  C         19.1410   52.6160    8.9000 C.2    61  ARG61       0.2260
     44  O         20.1170   52.9440    8.2250 O.2    61  ARG61      -0.2867
     45  CB        18.5570   54.0860   10.8120 C.3    61  ARG61       0.0307
     46  CG        18.5610   54.4040   12.2760 C.3    61  ARG61       0.0489
     47  CD        17.5370   53.5880   12.9910 C.3    61  ARG61       0.2205
     48  NE        17.4490   53.9300   14.4090 N.pl3  61  ARG61      -0.0865
     49  CZ        16.8490   53.1560   15.3050 C.cat  61  ARG61       0.5346
     50  NH1       16.2930   52.0120   14.9240 N.pl3  61  ARG61       0.1354
     51  NH2       16.8200   53.5210   16.5690 N.pl3  61  ARG61       0.1354
     52  N         23.7080   56.4080   10.8220 N.3    70  ILE70      -0.1231
     53  CA        23.6860   56.3070   12.2730 C.3    70  ILE70       0.1692
     54  C         23.0950   57.6160   12.8530 C.2    70  ILE70       0.2592
     55  O         22.7180   57.6630   14.0110 O.2    70  ILE70      -0.2718
     56  CB        25.0830   55.9510   12.9110 C.3    70  ILE70       0.0266
     57  CG1       26.1880   56.8600   12.4200 C.3    70  ILE70       0.0019
     58  CG2       25.4140   54.5040   12.6190 C.3    70  ILE70       0.0020
     59  CD1       27.5150   56.5700   13.1500 C.3    70  ILE70       0.0001
     60  N         23.0840   58.6900   12.0570 N.am   71  THR71      -0.1953
     61  CA        22.4110   59.9370   12.4440 C.3    71  THR71       0.1897
     62  C         21.7280   60.3660   11.1440 C.2    71  THR71       0.2313
     63  O         22.3230   60.3350   10.1040 O.2    71  THR71      -0.2863
     64  CB        23.3500   61.0330   12.9890 C.3    71  THR71       0.1794
     65  OG1       22.5430   62.1190   13.4430 O.3    71  THR71      -0.2208
     66  CG2       24.3530   61.5330   11.9180 C.3    71  THR71       0.0378
     67  N         20.9940   63.0480    9.5490 N.3    73  ARG73      -0.1245
     68  CA        21.5390   64.0850    8.6570 C.3    73  ARG73       0.1563
     69  C         22.6670   63.6440    7.7280 C.2    73  ARG73       0.2260
     70  O         23.0240   64.3760    6.8060 O.2    73  ARG73      -0.2867
     71  CB        22.0410   65.2780    9.4670 C.3    73  ARG73       0.0307
     72  CG        23.2150   64.9080   10.3520 C.3    73  ARG73       0.0489
     73  CD        23.9450   66.1340   10.9160 C.3    73  ARG73       0.2205
     74  NE        24.8660   65.7770   11.9920 N.pl3  73  ARG73      -0.0865
     75  CZ        26.1580   65.4650   11.8430 C.cat  73  ARG73       0.5346
     76  NH1       26.7370   65.4590   10.6410 N.pl3  73  ARG73       0.1354
     77  NH2       26.8690   65.1290   12.9140 N.pl3  73  ARG73       0.1354
     78  N         33.2460   57.4000    8.8410 N.3    86  TYR86      -0.1241
     79  CA        33.5040   57.6440   10.2720 C.3    86  TYR86       0.1605
     80  C         34.9040   57.2500   10.7100 C.2    86  TYR86       0.2264
     81  O         35.3340   57.5970   11.7930 O.2    86  TYR86      -0.2867
     82  CB        32.3820   56.9980   11.1290 C.3    86  TYR86       0.0534
     83  CG        31.0410   57.6960   10.9760 C.ar   86  TYR86      -0.0201
     84  CD1       30.7910   58.9500   11.5840 C.ar   86  TYR86      -0.0009
     85  CD2       30.0160   57.1180   10.1950 C.ar   86  TYR86      -0.0009
     86  CE1       29.5840   59.5990   11.4300 C.ar   86  TYR86       0.0417
     87  CE2       28.8050   57.7690   10.0290 C.ar   86  TYR86       0.0417
     88  CZ        28.5900   59.0130   10.6460 C.ar   86  TYR86       0.1957
     89  OH        27.4070   59.6690   10.4280 O.3    86  TYR86      -0.2866
     90  N         32.8050   63.4200   13.2030 N.3    91  ASP91      -0.1225
     91  CA        31.5820   64.0780   12.7460 C.3    91  ASP91       0.1805
     92  C         30.3860   63.9220   13.6960 C.2    91  ASP91       0.2598
     93  O         29.2570   63.6740   13.2500 O.2    91  ASP91      -0.2718
     94  CB        31.1970   63.5570   11.3610 C.3    91  ASP91       0.1424
     95  CG        30.1230   64.4190   10.7020 C.2    91  ASP91       0.3668
     96  OD1       30.0680   65.6200   11.0430 O.co2  91  ASP91      -0.2456
     97  OD2       29.3370   63.9190    9.8540 O.co2  91  ASP91      -0.2456
     98  N         30.6190   64.0570   14.9950 N.am   92  GLY92      -0.1942
     99  CA        29.5150   63.8910   15.9300 C.3    92  GLY92       0.2014
    100  C         29.8080   62.7610   16.9010 C.2    92  GLY92       0.2638
    101  O         29.4040   62.8490   18.0460 O.2    92  GLY92      -0.2714
    102  N         30.4600   61.6920   16.4400 N.am   93  LEU93      -0.1977
    103  CA        30.8810   60.5970   17.3320 C.3    93  LEU93       0.1596
    104  C         31.8900   61.2460   18.2880 C.2    93  LEU93       0.2287
    105  O         32.3870   62.3870   18.0090 O.2    93  LEU93      -0.2864
    106  CB        31.5990   59.4790   16.5500 C.3    93  LEU93       0.0297
    107  CG        30.7670   58.6380   15.5880 C.3    93  LEU93       0.0022
    108  CD1       31.6650   57.6820   14.8230 C.3    93  LEU93       0.0001
    109  CD2       29.7140   57.8370   16.4080 C.3    93  LEU93       0.0001
@<TRIPOS>BOND
     1    70    69    2
     2    69    68    1
     3    44    43    2
     4    68    71    1
     5    68    67    1
     6    78    79    1
     7    43    42    1
     8    71    72    1
     9    97    95   ar
    10    87    85   ar
    11    87    88   ar
    12    63    62    2
    13    85    83   ar
    14    79    80    1
    15    79    82    1
    16    72    73    1
    17    42    45    1
    18    42    41    1
    19    89    88    1
    20    76    75    1
    21    88    86   ar
    22    95    96   ar
    23    95    94    1
    24    80    81    2
    25    45    46    1
    26    52    53    1
    27    73    74    1
    28    83    82    1
    29    83    84   ar
    30    62    61    1
    31    94    91    1
    32    86    84   ar
    33    75    74    2
    34    75    77    1
    35    66    64    1
    36    60    61    1
    37    60    54   am
    38    53    54    1
    39    53    56    1
    40    46    47    1
    41    57    56    1
    42    57    59    1
    43    61    64    1
    44    58    56    1
    45    91    90    1
    46    91    92    1
    47    54    55    2
    48    64    65    1
    49    47    48    1
    50    93    92    2
    51    92    98   am
    52    35    34    2
    53    34    33    1
    54    48    49    2
    55   108   107    1
    56    50    49    1
    57    98    99    1
    58    49    51    1
    59    33    36    1
    60    33    32    1
    61   107   109    1
    62   107   106    1
    63    36    37    1
    64    23    22    2
    65    99   100    1
    66    32    22   am
    67   102   100   am
    68   102   103    1
    69    22    21    1
    70    24    25    1
    71    24    21    1
    72   106   103    1
    73    38    37    1
    74    38    39    1
    75   100   101    2
    76   103   104    1
    77    25    27   ar
    78    25    26   ar
    79    21    20    1
    80    27    29   ar
    81    26    28   ar
    82   105   104    2
    83    39    40    1
    84    20    12   am
    85    29    30   ar
    86    28    30   ar
    87    30    31    1
    88    12    13    2
    89    12    11    1
    90    11    14    1
    91    11    10    1
    92     4     3    2
    93    14    15    1
    94    16    15   ar
    95    16    18   ar
    96    10     3   am
    97     3     2    1
    98    15    17   ar
    99     5     2    1
   100     5     6    1
   101    18    19   ar
   102     2     1    1
   103     7     6    1
   104     7     8    1
   105    17    19   ar
   106     8     9    1
