@<TRIPOS>MOLECULE
tmp/1p17B00.pdb
 140 135 0 0 0
SMALL
GASTEIGER

@<TRIPOS>ATOM
      1  N          9.1360   24.3260    9.5800 N.3    52  GLY52      -0.1225
      2  CA         7.9910   23.7540   10.2470 C.3    52  GLY52       0.1811
      3  C          6.7520   24.6270   10.3570 C.2    52  GLY52       0.2280
      4  O          5.6330   24.1330   10.2300 O.2    52  GLY52      -0.2866
      5  N         19.7480   20.9510   19.1250 N.3    83  GLY83      -0.1210
      6  CA        18.9560   22.1440   18.8680 C.3    83  GLY83       0.1956
      7  C         19.2080   22.7120   17.4800 C.2    83  GLY83       0.2611
      8  O         20.3570   22.7970   17.0370 O.2    83  GLY83      -0.2717
      9  N         18.1470   23.0900   16.7720 N.am   84  GLN84      -0.1979
     10  CA        18.3280   23.6600   15.4390 C.3    84  GLN84       0.1601
     11  C         18.9900   25.0210   15.6090 C.2    84  GLN84       0.2287
     12  O         18.3240   26.0200   15.8520 O.2    84  GLN84      -0.2864
     13  CB        16.9860   23.7990   14.7140 C.3    84  GLN84       0.0394
     14  CG        16.4430   22.4820   14.2000 C.3    84  GLN84       0.0908
     15  CD        15.4690   22.6530   13.0470 C.2    84  GLN84       0.2608
     16  OE1       15.1000   21.6850   12.3860 O.2    84  GLN84      -0.2717
     17  NE2       15.0480   23.8890   12.8010 N.am   84  GLN84      -0.0878
     18  N          7.2670   29.9800   16.0290 N.3   104  GLU104     -0.1231
     19  CA         7.8420   28.6200   15.9740 C.3   104  GLU104      0.1699
     20  C          6.7370   27.5660   15.8830 C.2   104  GLU104      0.2592
     21  O          5.6490   27.7530   16.4240 O.2   104  GLU104     -0.2718
     22  CB         8.7100   28.3320   17.2040 C.3   104  GLU104      0.0402
     23  CG        10.2010   28.4950   16.9990 C.3   104  GLU104      0.1161
     24  CD        10.8120   27.4490   16.0810 C.2   104  GLU104      0.3649
     25  OE1       12.0440   27.3010   16.1280 O.co2 104  GLU104     -0.2457
     26  OE2       10.0850   26.7840   15.3070 O.co2 104  GLU104     -0.2457
     27  N          7.0230   26.4600   15.2040 N.am  105  ASP105     -0.1960
     28  CA         6.0310   25.4070   15.0300 C.3   105  ASP105      0.1840
     29  C          5.7140   24.6270   16.2940 C.2   105  ASP105      0.2622
     30  O          4.5470   24.5080   16.6750 O.2   105  ASP105     -0.2715
     31  CB         6.4540   24.4490   13.9040 C.3   105  ASP105      0.1450
     32  CG         7.7890   23.7730   14.1600 C.2   105  ASP105      0.3671
     33  OD1        8.6680   24.3940   14.7960 O.co2 105  ASP105     -0.2456
     34  OD2        7.9660   22.6230   13.6990 O.co2 105  ASP105     -0.2456
     35  N          6.7360   24.0960   16.9540 N.am  106  ILE106     -0.1963
     36  CA         6.5030   23.3370   18.1780 C.3   106  ILE106      0.1727
     37  C          7.7200   23.3570   19.0950 C.2   106  ILE106      0.2616
     38  O          8.8070   22.9620   18.6920 O.2   106  ILE106     -0.2715
     39  CB         6.1030   21.8600   17.8580 C.3   106  ILE106      0.0290
     40  CG1        6.2350   21.0060   19.1220 C.3   106  ILE106      0.0022
     41  CG2        6.9480   21.3030   16.7270 C.3   106  ILE106      0.0023
     42  CD1        5.7350   19.6030   18.9580 C.3   106  ILE106      0.0001
     43  N          7.5510   23.8420   20.3200 N.am  107  VAL107     -0.1963
     44  CA         8.6740   23.8880   21.2440 C.3   107  VAL107      0.1727
     45  C          8.6670   22.6060   22.0620 C.2   107  VAL107      0.2616
     46  O          7.6820   22.2730   22.7000 O.2   107  VAL107     -0.2715
     47  CB         8.6160   25.1470   22.1570 C.3   107  VAL107      0.0290
     48  CG1        7.3250   25.2010   22.9160 C.3   107  VAL107      0.0023
     49  CG2        9.7820   25.1450   23.1030 C.3   107  VAL107      0.0023
     50  N          9.7680   21.8710   22.0020 N.am  108  ASP108     -0.1957
     51  CA         9.8980   20.6080   22.7120 C.3   108  ASP108      0.1840
     52  C         10.9260   20.7480   23.8380 C.2   108  ASP108      0.2623
     53  O         10.5720   20.8750   25.0080 O.2   108  ASP108     -0.2715
     54  CB        10.3420   19.5240   21.7360 C.3   108  ASP108      0.1450
     55  CG        10.4270   18.1730   22.3830 C.2   108  ASP108      0.3671
     56  OD1       10.7480   18.1260   23.5840 O.co2 108  ASP108     -0.2456
     57  OD2       10.1820   17.1600   21.6970 O.co2 108  ASP108     -0.2456
     58  N         12.2050   20.7180   23.4760 N.am  109  THR109     -0.1937
     59  CA        13.2760   20.8660   24.4610 C.3   109  THR109      0.2028
     60  C         13.5490   22.3560   24.6610 C.2   109  THR109      0.2642
     61  O         14.1840   22.7530   25.6410 O.2   109  THR109     -0.2714
     62  CB        14.5940   20.2180   23.9960 C.3   109  THR109      0.1808
     63  OG1       15.2410   21.0850   23.0560 O.3   109  THR109     -0.2208
     64  CG2       14.3320   18.8870   23.3330 C.3   109  THR109      0.0379
     65  N         13.0850   23.1630   23.7080 N.am  110  ALA110     -0.1963
     66  CA        13.2420   24.6170   23.7430 C.3   110  ALA110      0.1728
     67  C         14.6520   25.0820   23.3880 C.2   110  ALA110      0.2616
     68  O         14.9420   26.2810   23.3510 O.2   110  ALA110     -0.2715
     69  CB        12.8270   25.1690   25.1320 C.3   110  ALA110      0.0334
     70  N         15.5330   24.1380   23.1030 N.am  111  LEU111     -0.1963
     71  CA        16.8930   24.5190   22.7720 C.3   111  LEU111      0.1728
     72  C         16.9060   25.5240   21.6320 C.2   111  LEU111      0.2617
     73  O         17.6990   26.4640   21.6420 O.2   111  LEU111     -0.2715
     74  CB        17.7240   23.2870   22.4130 C.3   111  LEU111      0.0311
     75  CG        18.0550   22.3260   23.5640 C.3   111  LEU111      0.0022
     76  CD1       18.7770   21.0710   23.0510 C.3   111  LEU111      0.0001
     77  CD2       18.9140   23.0600   24.5800 C.3   111  LEU111      0.0001
     78  N         16.0120   25.3420   20.6610 N.am  112  THR112     -0.1937
     79  CA        15.9570   26.2440   19.5110 C.3   112  THR112      0.2028
     80  C         15.3640   27.6040   19.8620 C.2   112  THR112      0.2642
     81  O         15.9970   28.6390   19.6580 O.2   112  THR112     -0.2714
     82  CB        15.1490   25.6380   18.3610 C.3   112  THR112      0.1808
     83  OG1       15.6920   24.3630   18.0150 O.3   112  THR112     -0.2208
     84  CG2       15.2180   26.5330   17.1560 C.3   112  THR112      0.0379
     85  N         14.1380   27.5990   20.3770 N.am  113  LEU113     -0.1977
     86  CA        13.4780   28.8390   20.7720 C.3   113  LEU113      0.1596
     87  C         14.3720   29.6290   21.7330 C.2   113  LEU113      0.2287
     88  O         14.5650   30.8400   21.5560 O.2   113  LEU113     -0.2864
     89  CB        12.1400   28.5260   21.4420 C.3   113  LEU113      0.0297
     90  CG        10.9260   28.9360   20.6220 C.3   113  LEU113      0.0022
     91  CD1        9.6630   28.4710   21.3040 C.3   113  LEU113      0.0001
     92  CD2       10.9290   30.4340   20.4450 C.3   113  LEU113      0.0001
     93  N          5.2990   20.9730   24.0830 N.3   136  LYS136     -0.1245
     94  CA         5.4070   19.6410   24.6540 C.3   136  LYS136      0.1561
     95  C          5.7400   19.6450   26.1300 C.2   136  LYS136      0.2260
     96  O          5.9990   18.5920   26.7080 O.2   136  LYS136     -0.2867
     97  CB         6.4390   18.8120   23.9000 C.3   136  LYS136      0.0271
     98  CG         5.8990   18.1690   22.6370 C.3   136  LYS136      0.0035
     99  CD         6.9290   17.2400   22.0280 C.3   136  LYS136      0.0206
    100  CE         6.4480   16.6480   20.7230 C.3   136  LYS136      0.1093
    101  NZ         7.5260   15.8660   20.0750 N.3   136  LYS136     -0.1314
    102  N          5.0030   12.9640   21.7750 N.3   156  ALA156     -0.1231
    103  CA         4.6200   12.0310   20.7240 C.3   156  ALA156      0.1694
    104  C          5.1340   12.6260   19.4320 C.2   156  ALA156      0.2592
    105  O          5.4590   13.8060   19.4030 O.2   156  ALA156     -0.2718
    106  CB         3.1090   11.8810   20.6740 C.3   156  ALA156      0.0304
    107  N          5.2180   11.8310   18.3690 N.am  157  PHE157     -0.1962
    108  CA         5.7050   12.3740   17.1090 C.3   157  PHE157      0.1771
    109  C          4.5730   12.8360   16.2190 C.2   157  PHE157      0.2619
    110  O          3.9210   12.0300   15.5570 O.2   157  PHE157     -0.2715
    111  CB         6.5500   11.3640   16.3470 C.3   157  PHE157      0.0574
    112  CG         7.5440   12.0080   15.4270 C.ar  157  PHE157     -0.0200
    113  CD1        8.5540   12.8280   15.9400 C.ar  157  PHE157     -0.0042
    114  CD2        7.4690   11.8210   14.0540 C.ar  157  PHE157     -0.0042
    115  CE1        9.4650   13.4450   15.1000 C.ar  157  PHE157     -0.0003
    116  CE2        8.3830   12.4400   13.2060 C.ar  157  PHE157     -0.0003
    117  CZ         9.3790   13.2510   13.7300 C.ar  157  PHE157     -0.0000
    118  N          4.3570   14.1440   16.1960 N.am  158  VAL158     -0.1977
    119  CA         3.2910   14.7270   15.4060 C.3   158  VAL158      0.1596
    120  C          3.7300   15.1370   14.0100 C.2   158  VAL158      0.2287
    121  O          4.8870   15.4620   13.7810 O.2   158  VAL158     -0.2864
    122  CB         2.7000   15.9350   16.1240 C.3   158  VAL158      0.0276
    123  CG1        1.9310   15.4690   17.3360 C.3   158  VAL158      0.0022
    124  CG2        3.8130   16.8780   16.5380 C.3   158  VAL158      0.0022
    125  N          4.0570   20.5880   10.2970 N.3   163  LEU163     -0.1231
    126  CA         4.9690   19.7320   11.0380 C.3   163  LEU163      0.1693
    127  C          5.3740   18.5970   10.1180 C.2   163  LEU163      0.2592
    128  O          4.6400   18.2820    9.1900 O.2   163  LEU163     -0.2718
    129  CB         4.2730   19.1830   12.2790 C.3   163  LEU163      0.0284
    130  CG         3.9300   20.2140   13.3570 C.3   163  LEU163      0.0019
    131  CD1        3.2780   19.5070   14.5390 C.3   163  LEU163      0.0001
    132  CD2        5.1870   20.9570   13.8040 C.3   163  LEU163      0.0001
    133  N          6.5070   17.9580   10.3770 N.am  164  ASP164     -0.1974
    134  CA         6.9380   16.8980    9.4830 C.3   164  ASP164      0.1709
    135  C          7.7070   15.7180   10.0590 C.2   164  ASP164      0.2293
    136  O          8.0170   15.6230   11.2510 O.2   164  ASP164     -0.2864
    137  CB         7.8320   17.4810    8.4010 C.3   164  ASP164      0.1436
    138  CG         9.2020   17.8230    8.9290 C.2   164  ASP164      0.3671
    139  OD1        9.8450   16.9660    9.5630 O.co2 164  ASP164     -0.2456
    140  OD2        9.6670   18.9560    8.7370 O.co2 164  ASP164     -0.2456
@<TRIPOS>BOND
     1   137   138    1
     2   137   134    1
     3   140   138   ar
     4   138   139   ar
     5   128   127    2
     6   134   135    1
     7   134   133    1
     8     1     2    1
     9   135   136    2
    10   127   133   am
    11   127   126    1
    12     4     3    2
    13     2     3    1
    14   125   126    1
    15   126   129    1
    16   129   130    1
    17    16    15    2
    18    17    15   am
    19    15    14    1
    20   116   117   ar
    21   116   114   ar
    22   130   132    1
    23   130   131    1
    24    34    32   ar
    25   117   115   ar
    26   121   120    2
    27    31    32    1
    28    31    28    1
    29   120   119    1
    30   114   112   ar
    31    32    33   ar
    32    14    13    1
    33    13    10    1
    34    28    27    1
    35    28    29    1
    36   115   113   ar
    37    27    20   am
    38    26    24   ar
    39   119   122    1
    40   119   118    1
    41   112   113   ar
    42   112   111    1
    43    10    11    1
    44    10     9    1
    45   110   109    2
    46    11    12    2
    47    20    19    1
    48    20    21    2
    49    19    18    1
    50    19    22    1
    51    24    25   ar
    52    24    23    1
    53   122   124    1
    54   122   123    1
    55   118   109   am
    56   109   108    1
    57    29    30    2
    58    29    35   am
    59   111   108    1
    60    41    39    1
    61     9     7   am
    62    35    36    1
    63    23    22    1
    64     8     7    2
    65   108   107    1
    66    84    82    1
    67     7     6    1
    68    39    36    1
    69    39    40    1
    70    83    82    1
    71    36    37    1
    72    82    79    1
    73   107   104   am
    74    38    37    2
    75     6     5    1
    76    42    40    1
    77    37    43   am
    78   105   104    2
    79   104   103    1
    80    79    80    1
    81    79    78    1
    82    81    80    2
    83    80    85   am
    84   101   100    1
    85    43    44    1
    86    85    86    1
    87    92    90    1
    88    90    91    1
    89    90    89    1
    90    78    72   am
    91   106   103    1
    92   100    99    1
    93   103   102    1
    94    86    89    1
    95    86    87    1
    96    44    45    1
    97    44    47    1
    98    88    87    2
    99    72    73    2
   100    72    71    1
   101    57    55   ar
   102    54    55    1
   103    54    51    1
   104    50    45   am
   105    50    51    1
   106    99    98    1
   107    45    46    2
   108    47    48    1
   109    47    49    1
   110    55    56   ar
   111    74    71    1
   112    74    75    1
   113    98    97    1
   114    51    52    1
   115    71    70    1
   116    76    75    1
   117    63    62    1
   118    70    67   am
   119    64    62    1
   120    68    67    2
   121    67    66    1
   122    58    52   am
   123    58    59    1
   124    75    77    1
   125    65    66    1
   126    65    60   am
   127    66    69    1
   128    52    53    2
   129    97    94    1
   130    62    59    1
   131    93    94    1
   132    59    60    1
   133    94    95    1
   134    60    61    2
   135    95    96    2
