@<TRIPOS>MOLECULE
tmp/1p1mA00.pdb
 119 114 0 0 0
SMALL
GASTEIGER

@<TRIPOS>ATOM
      1  N         12.1110  116.6290    8.5940 N.3    57  HIS57      -0.1241
      2  CA        12.3040  117.9840    9.1000 C.3    57  HIS57       0.1621
      3  C         13.6710  117.7810    9.7440 C.2    57  HIS57       0.2264
      4  O         13.7810  117.4870   10.9320 O.2    57  HIS57      -0.2867
      5  CB        11.2170  118.2820   10.1380 C.3    57  HIS57       0.0745
      6  CG         9.8260  118.0170    9.6420 C.ar   57  HIS57       0.0817
      7  ND1        9.1820  118.8490    8.7550 N.ar   57  HIS57      -0.2268
      8  CD2        8.9740  116.9870    9.8770 C.ar   57  HIS57       0.1154
      9  CE1        7.9950  118.3470    8.4600 C.ar   57  HIS57       0.1986
     10  NE2        7.8460  117.2140    9.1300 N.ar   57  HIS57      -0.2212
     11  N          2.8180  119.1910   19.0050 N.3    76  LEU76      -0.1245
     12  CA         3.1770  120.3890   18.2620 C.3    76  LEU76       0.1561
     13  C          3.0960  121.7070   19.0260 C.2    76  LEU76       0.2260
     14  O          4.1010  122.3970   19.1970 O.2    76  LEU76      -0.2867
     15  CB         2.3210  120.4980   16.9910 C.3    76  LEU76       0.0270
     16  CG         2.6020  121.7150   16.1010 C.3    76  LEU76       0.0019
     17  CD1        4.0670  121.7230   15.6730 C.3    76  LEU76       0.0001
     18  CD2        1.6970  121.6790   14.8830 C.3    76  LEU76       0.0001
     19  N          6.7660  123.6370   19.3440 N.3    81  LEU81      -0.1245
     20  CA         6.8690  125.0520   19.0090 C.3    81  LEU81       0.1561
     21  C          7.7740  125.8780   19.9280 C.2    81  LEU81       0.2260
     22  O          8.5970  126.6530   19.4430 O.2    81  LEU81      -0.2867
     23  CB         5.4750  125.6920   18.9090 C.3    81  LEU81       0.0270
     24  CG         4.6330  125.2650   17.6970 C.3    81  LEU81       0.0019
     25  CD1        3.3390  126.0670   17.6680 C.3    81  LEU81       0.0001
     26  CD2        5.4170  125.4850   16.4050 C.3    81  LEU81       0.0001
     27  N         11.3840  125.0580   19.0600 N.3    84  GLU84      -0.1245
     28  CA        11.7700  125.5400   17.7380 C.3    84  GLU84       0.1567
     29  C         12.0150  127.0420   17.7640 C.2    84  GLU84       0.2260
     30  O         12.7750  127.5670   16.9590 O.2    84  GLU84      -0.2867
     31  CB        10.6990  125.1920   16.7010 C.3    84  GLU84       0.0388
     32  CG        10.5220  123.6940   16.5070 C.3    84  GLU84       0.1160
     33  CD         9.5790  123.3640   15.3730 C.2    84  GLU84       0.3649
     34  OE1        8.6350  124.1460   15.1430 O.co2  84  GLU84      -0.2457
     35  OE2        9.7710  122.3110   14.7290 O.co2  84  GLU84      -0.2457
     36  N         10.9780  119.9240    4.9760 N.3   114  MET114     -0.1230
     37  CA         9.9790  120.9730    5.1580 C.3   114  MET114      0.1702
     38  C         10.3210  121.6140    6.4960 C.2   114  MET114      0.2592
     39  O         10.0190  121.0480    7.5400 O.2   114  MET114     -0.2718
     40  CB         8.5680  120.3990    5.2340 C.3   114  MET114      0.0401
     41  CG         7.4940  121.4580    5.4060 C.3   114  MET114      0.0596
     42  SD         5.9510  120.8560    6.0910 S.3   114  MET114     -0.1393
     43  CE         5.2510  119.8950    4.6470 C.3   114  MET114      0.0692
     44  N         10.9450  122.7860    6.4880 N.am  115  TYR115     -0.1962
     45  CA        11.3000  123.3980    7.7670 C.3   115  TYR115      0.1771
     46  C         11.5900  124.8900    7.6340 C.2   115  TYR115      0.2619
     47  O         11.0680  125.5500    6.7380 O.2   115  TYR115     -0.2715
     48  CB        12.5180  122.6740    8.3650 C.3   115  TYR115      0.0574
     49  CG        12.4920  122.5550    9.8760 C.ar  115  TYR115     -0.0198
     50  CD1       11.3990  121.9780   10.5240 C.ar  115  TYR115     -0.0009
     51  CD2       13.5520  123.0270   10.6570 C.ar  115  TYR115     -0.0009
     52  CE1       11.3570  121.8780   11.9150 C.ar  115  TYR115      0.0417
     53  CE2       13.5160  122.9310   12.0480 C.ar  115  TYR115      0.0417
     54  CZ        12.4180  122.3580   12.6680 C.ar  115  TYR115      0.1957
     55  OH        12.3720  122.2820   14.0430 O.3   115  TYR115     -0.2866
     56  N         12.3900  125.4270    8.5520 N.am  116  PHE116     -0.1974
     57  CA        12.7700  126.8340    8.5030 C.3   116  PHE116      0.1639
     58  C         14.2940  126.9250    8.5620 C.2   116  PHE116      0.2290
     59  O         14.9690  125.9220    8.8240 O.2   116  PHE116     -0.2864
     60  CB        12.1080  127.6490    9.6300 C.3   116  PHE116      0.0560
     61  CG        12.2750  127.0620   11.0020 C.ar  116  PHE116     -0.0200
     62  CD1       11.4030  126.0820   11.4690 C.ar  116  PHE116     -0.0042
     63  CD2       13.3060  127.4920   11.8300 C.ar  116  PHE116     -0.0042
     64  CE1       11.5540  125.5460   12.7450 C.ar  116  PHE116     -0.0003
     65  CE2       13.4690  126.9630   13.1090 C.ar  116  PHE116     -0.0003
     66  CZ        12.5890  125.9830   13.5650 C.ar  116  PHE116     -0.0000
     67  N         10.2930  125.1960    2.3910 N.3   136  ARG136     -0.1231
     68  CA        10.1030  125.9790    3.6050 C.3   136  ARG136      0.1694
     69  C          8.6830  125.6950    4.0970 C.2   136  ARG136      0.2592
     70  O          7.7400  125.6610    3.3070 O.2   136  ARG136     -0.2718
     71  CB        10.2760  127.4670    3.2680 C.3   136  ARG136      0.0321
     72  CG        10.7450  128.3550    4.4190 C.3   136  ARG136      0.0489
     73  CD         9.6030  128.7640    5.3140 C.3   136  ARG136      0.2205
     74  NE        10.0360  129.6720    6.3730 N.pl3 136  ARG136     -0.0865
     75  CZ         9.6520  129.5600    7.6380 C.cat 136  ARG136      0.5346
     76  NH1        8.8350  128.5780    7.9920 N.pl3 136  ARG136      0.1354
     77  NH2       10.0760  130.4310    8.5480 N.pl3 136  ARG136      0.1354
     78  N          8.5370  125.4620    5.3990 N.am  137  GLY137     -0.1957
     79  CA         7.2210  125.2030    5.9580 C.3   137  GLY137      0.1869
     80  C          6.3840  126.4630    5.8920 C.2   137  GLY137      0.2309
     81  O          6.7940  127.5160    6.3850 O.2   137  GLY137     -0.2863
     82  N          2.6630  128.4600    6.5990 N.3   139  VAL139     -0.1245
     83  CA         1.4170  128.5420    7.3580 C.3   139  VAL139      0.1561
     84  C          1.0000  130.0070    7.2900 C.2   139  VAL139      0.2260
     85  O          1.8390  130.8760    7.0720 O.2   139  VAL139     -0.2867
     86  CB         1.5890  128.1420    8.8560 C.3   139  VAL139      0.0252
     87  CG1        1.9330  126.6570    8.9760 C.3   139  VAL139      0.0019
     88  CG2        2.6650  128.9960    9.5130 C.3   139  VAL139      0.0019
     89  N          6.8860  133.8280    5.2140 N.3   148  ARG148     -0.1245
     90  CA         7.3560  132.4740    4.9380 C.3   148  ARG148      0.1563
     91  C          7.4810  132.1470    3.4470 C.2   148  ARG148      0.2260
     92  O          8.4650  131.5350    3.0290 O.2   148  ARG148     -0.2867
     93  CB         6.4580  131.4560    5.6470 C.3   148  ARG148      0.0307
     94  CG         6.5810  131.5120    7.1760 C.3   148  ARG148      0.0489
     95  CD         5.6160  130.5370    7.8300 C.3   148  ARG148      0.2205
     96  NE         5.7330  130.4810    9.2900 N.pl3 148  ARG148     -0.0865
     97  CZ         5.2140  131.3740   10.1290 C.cat 148  ARG148      0.5346
     98  NH1        4.5350  132.4190    9.6700 N.pl3 148  ARG148      0.1354
     99  NH2        5.3560  131.2070   11.4390 N.pl3 148  ARG148      0.1354
    100  N          2.2500  123.5820    5.1610 N.3   173  HIS173     -0.1241
    101  CA         2.1590  122.5650    6.2000 C.3   173  HIS173      0.1621
    102  C          1.0350  121.5560    6.0450 C.2   173  HIS173      0.2264
    103  O          1.2530  120.3430    6.1730 O.2   173  HIS173     -0.2867
    104  CB         2.0460  123.2270    7.5780 C.3   173  HIS173      0.0745
    105  CG         1.9210  122.2500    8.7030 C.ar  173  HIS173      0.0817
    106  ND1        0.7230  121.6660    9.0500 N.ar  173  HIS173     -0.2268
    107  CD2        2.8550  121.7140    9.5250 C.ar  173  HIS173      0.1154
    108  CE1        0.9230  120.8080   10.0370 C.ar  173  HIS173      0.1986
    109  NE2        2.2090  120.8190   10.3410 N.ar  173  HIS173     -0.2212
    110  N          1.5020  118.0340    4.3650 N.3   200  HIS200     -0.1241
    111  CA         1.0100  116.9560    5.2290 C.3   200  HIS200      0.1621
    112  C         -0.4710  116.8630    4.8330 C.2   200  HIS200      0.2264
    113  O         -1.2280  117.8210    5.0300 O.2   200  HIS200     -0.2867
    114  CB         1.1060  117.3250    6.7190 C.3   200  HIS200      0.0745
    115  CG         2.5060  117.4890    7.2420 C.ar  200  HIS200      0.0817
    116  ND1        2.9620  118.6770    7.7700 N.ar  200  HIS200     -0.2268
    117  CD2        3.5140  116.5970    7.4080 C.ar  200  HIS200      0.1154
    118  CE1        4.1860  118.5130    8.2430 C.ar  200  HIS200      0.1986
    119  NE2        4.5440  117.2570    8.0370 N.ar  200  HIS200     -0.2212
@<TRIPOS>BOND
     1    67    68    1
     2    92    91    2
     3    71    68    1
     4    71    72    1
     5    70    69    2
     6    91    90    1
     7    68    69    1
     8    69    78   am
     9   110   111    1
    10    72    73    1
    11    43    42    1
    12   112   113    2
    13   112   111    1
    14    90    89    1
    15    90    93    1
    16    36    37    1
    17    37    40    1
    18    37    38    1
    19   100   101    1
    20   111   114    1
    21    40    41    1
    22    73    74    1
    23    78    79    1
    24    41    42    1
    25    93    94    1
    26    80    79    1
    27    80    81    2
    28   102   103    2
    29   102   101    1
    30   101   104    1
    31    74    75    2
    32    44    38   am
    33    44    45    1
    34    38    39    2
    35    82    83    1
    36   114   115    1
    37    47    46    2
    38    85    84    2
    39    94    95    1
    40   115   117   ar
    41   115   116   ar
    42    84    83    1
    43    83    86    1
    44   117   119   ar
    45   104   105    1
    46    46    45    1
    47    46    56   am
    48    75    76    1
    49    75    77    1
    50    45    48    1
    51   116   118   ar
    52    95    96    1
    53   119   118   ar
    54    48    49    1
    55     9     7   ar
    56     9    10   ar
    57    57    56    1
    58    57    58    1
    59    57    60    1
    60    58    59    2
    61     1     2    1
    62   105   106   ar
    63   105   107   ar
    64     7     6   ar
    65    86    87    1
    66    86    88    1
    67   106   108   ar
    68     2     3    1
    69     2     5    1
    70    10     8   ar
    71    96    97    2
    72   107   109   ar
    73    60    61    1
    74     6     8   ar
    75     6     5    1
    76    98    97    1
    77     3     4    2
    78    49    50   ar
    79    49    51   ar
    80   108   109   ar
    81    97    99    1
    82    50    52   ar
    83    51    53   ar
    84    61    62   ar
    85    61    63   ar
    86    62    64   ar
    87    63    65   ar
    88    52    54   ar
    89    53    54   ar
    90    54    55    1
    91    64    66   ar
    92    65    66   ar
    93    35    33   ar
    94    18    16    1
    95    34    33   ar
    96    33    32    1
    97    17    16    1
    98    16    15    1
    99    26    24    1
   100    32    31    1
   101    31    28    1
   102    30    29    2
   103    15    12    1
   104    25    24    1
   105    24    23    1
   106    28    29    1
   107    28    27    1
   108    12    11    1
   109    12    13    1
   110    23    20    1
   111    20    19    1
   112    20    21    1
   113    13    14    2
   114    22    21    2
