@<TRIPOS>MOLECULE
tmp/1p1uB00.pdb
 127 121 0 0 0
SMALL
GASTEIGER

@<TRIPOS>ATOM
      1  N         33.7150   14.5760   24.7940 N.3    10  GLU10      -0.1245
      2  CA        32.7140   14.6930   25.8470 C.3    10  GLU10       0.1567
      3  C         32.9170   13.5240   26.8120 C.2    10  GLU10       0.2260
      4  O         32.7830   12.3700   26.4220 O.2    10  GLU10      -0.2867
      5  CB        31.3180   14.6130   25.2180 C.3    10  GLU10       0.0388
      6  CG        30.1590   14.7870   26.1850 C.3    10  GLU10       0.1160
      7  CD        29.7940   16.2390   26.3880 C.2    10  GLU10       0.3649
      8  OE1       29.8650   16.7160   27.5390 O.co2  10  GLU10      -0.2457
      9  OE2       29.4360   16.9030   25.3890 O.co2  10  GLU10      -0.2457
     10  N         32.4750    9.6850   27.3640 N.3    13  TYR13      -0.1241
     11  CA        32.3160    9.0640   26.0470 C.3    13  TYR13       0.1605
     12  C         33.6010    9.0420   25.2400 C.2    13  TYR13       0.2264
     13  O         34.0310    7.9880   24.7640 O.2    13  TYR13      -0.2867
     14  CB        31.2340    9.8090   25.2620 C.3    13  TYR13       0.0534
     15  CG        29.9420    9.9230   26.0270 C.ar   13  TYR13      -0.0201
     16  CD1       29.1460    8.8000   26.2530 C.ar   13  TYR13      -0.0009
     17  CD2       29.5280   11.1430   26.5550 C.ar   13  TYR13      -0.0009
     18  CE1       27.9680    8.8870   26.9850 C.ar   13  TYR13       0.0417
     19  CE2       28.3440   11.2430   27.2960 C.ar   13  TYR13       0.0417
     20  CZ        27.5720   10.1080   27.5050 C.ar   13  TYR13       0.1957
     21  OH        26.4120   10.1880   28.2430 O.3    13  TYR13      -0.2866
     22  N         26.4460   18.6520   17.7420 N.3    58  TYR58      -0.1241
     23  CA        25.9400   17.3100   17.5190 C.3    58  TYR58       0.1605
     24  C         25.2060   17.1840   16.1890 C.2    58  TYR58       0.2264
     25  O         25.5450   16.3260   15.3780 O.2    58  TYR58      -0.2867
     26  CB        25.0520   16.8840   18.6870 C.3    58  TYR58       0.0534
     27  CG        25.8630   16.5780   19.9250 C.ar   58  TYR58      -0.0201
     28  CD1       26.3160   17.5970   20.7610 C.ar   58  TYR58      -0.0009
     29  CD2       26.2350   15.2630   20.2230 C.ar   58  TYR58      -0.0009
     30  CE1       27.1270   17.3110   21.8670 C.ar   58  TYR58       0.0417
     31  CE2       27.0370   14.9720   21.3160 C.ar   58  TYR58       0.0417
     32  CZ        27.4810   15.9970   22.1300 C.ar   58  TYR58       0.1957
     33  OH        28.2920   15.6910   23.1990 O.3    58  TYR58      -0.2866
     34  N         27.6590   10.1880   21.7800 N.3    86  PRO86      -0.2102
     35  CA        26.3730   10.2750   22.4820 C.3    86  PRO86       0.1504
     36  C         25.4360   11.1540   21.6550 C.2    86  PRO86       0.2576
     37  O         25.0800   12.2730   22.0530 O.2    86  PRO86      -0.2718
     38  CB        26.7470   10.9230   23.8120 C.3    86  PRO86       0.0282
     39  CG        27.8690   11.8480   23.4150 C.3    86  PRO86       0.0208
     40  CD        28.6950   10.9640   22.4880 C.3    86  PRO86       0.0893
     41  N         25.0640   10.6300   20.4920 N.am   87  LEU87      -0.1966
     42  CA        24.1920   11.3100   19.5370 C.3    87  LEU87       0.1728
     43  C         22.8130   10.6680   19.6170 C.2    87  LEU87       0.2616
     44  O         22.6410    9.4890   19.2930 O.2    87  LEU87      -0.2715
     45  CB        24.7620   11.1500   18.1240 C.3    87  LEU87       0.0311
     46  CG        24.0100   11.8360   16.9860 C.3    87  LEU87       0.0022
     47  CD1       24.1130   13.3510   17.1520 C.3    87  LEU87       0.0001
     48  CD2       24.6040   11.3950   15.6450 C.3    87  LEU87       0.0001
     49  N         21.8320   11.4530   20.0400 N.am   88  THR88      -0.1951
     50  CA        20.4760   10.9650   20.2180 C.3    88  THR88       0.1897
     51  C         19.7060   10.7740   18.9120 C.2    88  THR88       0.2313
     52  O         19.7980   11.5830   17.9900 O.2    88  THR88      -0.2863
     53  CB        19.6820   11.9160   21.1600 C.3    88  THR88       0.1794
     54  OG1       20.4950   12.2440   22.2880 O.3    88  THR88      -0.2208
     55  CG2       18.4430   11.2410   21.6910 C.3    88  THR88       0.0378
     56  N         16.5360   14.0470   12.6690 N.3    93  ARG93      -0.1245
     57  CA        17.8080   13.4810   12.2330 C.3    93  ARG93       0.1563
     58  C         17.5940   12.2190   11.4110 C.2    93  ARG93       0.2260
     59  O         18.2490   12.0100   10.3930 O.2    93  ARG93      -0.2867
     60  CB        18.6890   13.1570   13.4430 C.3    93  ARG93       0.0307
     61  CG        19.2680   14.3920   14.1080 C.3    93  ARG93       0.0489
     62  CD        19.9820   14.0340   15.3950 C.3    93  ARG93       0.2205
     63  NE        20.5750   15.2140   16.0130 N.pl3  93  ARG93      -0.0865
     64  CZ        21.0050   15.2500   17.2690 C.cat  93  ARG93       0.5346
     65  NH1       20.9000   14.1700   18.0280 N.pl3  93  ARG93       0.1354
     66  NH2       21.5330   16.3620   17.7640 N.pl3  93  ARG93       0.1354
     67  N         21.4330   23.4240   23.3500 N.3   138  GLY138     -0.1210
     68  CA        21.4120   21.9730   23.3930 C.3   138  GLY138      0.1956
     69  C         20.0360   21.3420   23.3680 C.2   138  GLY138      0.2613
     70  O         19.0160   22.0360   23.4550 O.2   138  GLY138     -0.2717
     71  N         20.0170   20.0130   23.2820 N.am  139  SER139     -0.1938
     72  CA        18.7770   19.2530   23.1980 C.3   139  SER139      0.2055
     73  C         17.8510   19.3610   24.3990 C.2   139  SER139      0.2643
     74  O         16.6360   19.2820   24.2450 O.2   139  SER139     -0.2714
     75  CB        19.0770   17.7700   22.9250 C.3   139  SER139      0.2130
     76  OG        19.6560   17.1330   24.0540 O.3   139  SER139     -0.2179
     77  N         18.3960   19.5390   25.5960 N.am  140  THR140     -0.1950
     78  CA        17.5180   19.6220   26.7560 C.3   140  THR140      0.1897
     79  C         16.7030   20.9070   26.7290 C.2   140  THR140      0.2313
     80  O         15.4920   20.8890   26.9640 O.2   140  THR140     -0.2863
     81  CB        18.3090   19.5110   28.0770 C.3   140  THR140      0.1794
     82  OG1       18.9570   18.2320   28.1290 O.3   140  THR140     -0.2208
     83  CG2       17.3620   19.6210   29.2760 C.3   140  THR140      0.0378
     84  N         27.7640   22.1080   30.9190 N.3   171  THR171     -0.1218
     85  CA        27.3760   21.0810   31.8710 C.3   171  THR171      0.1862
     86  C         28.1420   21.3100   33.1710 C.2   171  THR171      0.2287
     87  O         27.5720   21.2680   34.2600 O.2   171  THR171     -0.2866
     88  CB        27.7280   19.6810   31.3430 C.3   171  THR171      0.1770
     89  OG1       27.2490   19.5430   30.0030 O.3   171  THR171     -0.2211
     90  CG2       27.0940   18.6080   32.2170 C.3   171  THR171      0.0375
     91  N         19.4040   17.7420   32.8720 N.3   189  LEU189     -0.1231
     92  CA        20.3580   17.2610   31.8800 C.3   189  LEU189      0.1693
     93  C         20.1060   15.7800   31.5770 C.2   189  LEU189      0.2591
     94  O         19.2610   15.1450   32.2090 O.2   189  LEU189     -0.2718
     95  CB        21.7910   17.4450   32.3980 C.3   189  LEU189      0.0284
     96  CG        22.3140   16.4320   33.4250 C.3   189  LEU189      0.0019
     97  CD1       23.7870   16.6900   33.6840 C.3   189  LEU189      0.0001
     98  CD2       21.5190   16.5150   34.7280 C.3   189  LEU189      0.0001
     99  N         20.8390   15.2340   30.6090 N.am  190  GLU190     -0.1979
    100  CA        20.6770   13.8330   30.2370 C.3   190  GLU190      0.1602
    101  C         20.9740   12.9140   31.4170 C.2   190  GLU190      0.2287
    102  O         21.9210   13.1370   32.1690 O.2   190  GLU190     -0.2864
    103  CB        21.5970   13.4760   29.0670 C.3   190  GLU190      0.0415
    104  CG        21.3640   14.3090   27.8110 C.3   190  GLU190      0.1163
    105  CD        22.0860   13.7340   26.6100 C.2   190  GLU190      0.3649
    106  OE1       23.2050   13.2140   26.7870 O.co2 190  GLU190     -0.2457
    107  OE2       21.5470   13.8130   25.4900 O.co2 190  GLU190     -0.2457
    108  N         24.6890   11.5150   31.8570 N.3   193  MET193     -0.1245
    109  CA        25.6500   12.4040   32.5080 C.3   193  MET193      0.1570
    110  C         25.3160   12.5430   33.9960 C.2   193  MET193      0.2261
    111  O         26.2110   12.6110   34.8470 O.2   193  MET193     -0.2867
    112  CB        25.6340   13.7880   31.8520 C.3   193  MET193      0.0387
    113  CG        26.9090   14.1260   31.0880 C.3   193  MET193      0.0595
    114  SD        28.3970   14.0020   32.1100 S.3   193  MET193     -0.1393
    115  CE        28.2690   15.4560   33.0870 C.3   193  MET193      0.0692
    116  N         20.8440    6.7750   22.3030 N.3   217  TYR217     -0.1241
    117  CA        21.9180    7.2050   21.4130 C.3   217  TYR217      0.1605
    118  C         22.0440    6.1020   20.3860 C.2   217  TYR217      0.2264
    119  O         21.8410    4.9240   20.6990 O.2   217  TYR217     -0.2867
    120  CB        23.2760    7.3040   22.1150 C.3   217  TYR217      0.0534
    121  CG        23.3660    8.2310   23.3040 C.ar  217  TYR217     -0.0201
    122  CD1       22.8040    9.5110   23.2820 C.ar  217  TYR217     -0.0009
    123  CD2       24.0570    7.8330   24.4420 C.ar  217  TYR217     -0.0009
    124  CE1       22.9380   10.3650   24.3790 C.ar  217  TYR217      0.0417
    125  CE2       24.1940    8.6680   25.5290 C.ar  217  TYR217      0.0417
    126  CZ        23.6380    9.9270   25.4990 C.ar  217  TYR217      0.1957
    127  OH        23.7940   10.7300   26.6070 O.3   217  TYR217     -0.2866
@<TRIPOS>BOND
     1    59    58    2
     2    58    57    1
     3    57    56    1
     4    57    60    1
     5    60    61    1
     6    61    62    1
     7    25    24    2
     8    62    63    1
     9    48    46    1
    10    63    64    2
    11    24    23    1
    12    46    47    1
    13    46    45    1
    14    64    66    1
    15    64    65    1
    16    23    22    1
    17    23    26    1
    18    52    51    2
    19    45    42    1
    20    26    27    1
    21    51    50    1
    22    44    43    2
    23    42    43    1
    24    42    41    1
    25    43    49   am
    26    27    29   ar
    27    27    28   ar
    28    49    50    1
    29    50    53    1
    30    29    31   ar
    31   118   119    2
    32   118   117    1
    33    41    36   am
    34    28    30   ar
    35    53    55    1
    36    53    54    1
    37    31    32   ar
    38   117   120    1
    39   117   116    1
    40    36    37    2
    41    36    35    1
    42    34    35    1
    43    34    40    1
    44    30    32   ar
    45   120   121    1
    46    32    33    1
    47    35    38    1
    48    40    39    1
    49    75    72    1
    50    75    76    1
    51    72    71    1
    52    72    73    1
    53    71    69   am
    54   122   121   ar
    55   122   124   ar
    56   121   123   ar
    57    67    68    1
    58    69    68    1
    59    69    70    2
    60    39    38    1
    61    74    73    2
    62   124   126   ar
    63    73    77   am
    64   123   125   ar
    65    13    12    2
    66     1     2    1
    67     5     2    1
    68     5     6    1
    69    12    11    1
    70    14    15    1
    71    14    11    1
    72     9     7   ar
    73   107   105   ar
    74   126   125   ar
    75   126   127    1
    76    77    78    1
    77     2     3    1
    78    15    16   ar
    79    15    17   ar
    80    11    10    1
    81     6     7    1
    82    16    18   ar
    83     7     8   ar
    84     4     3    2
    85    17    19   ar
    86   105   106   ar
    87   105   104    1
    88    79    78    1
    89    79    80    2
    90    78    81    1
    91    18    20   ar
    92    19    20   ar
    93    20    21    1
    94   104   103    1
    95    81    82    1
    96    81    83    1
    97   103   100    1
    98    89    88    1
    99   100    99    1
   100   100   101    1
   101    99    93   am
   102    84    85    1
   103   113   112    1
   104   113   114    1
   105    88    85    1
   106    88    90    1
   107   101   102    2
   108    93    92    1
   109    93    94    2
   110   112   109    1
   111   108   109    1
   112    85    86    1
   113    92    95    1
   114    92    91    1
   115   114   115    1
   116    95    96    1
   117   109   110    1
   118    86    87    2
   119    96    97    1
   120    96    98    1
   121   110   111    2
