@<TRIPOS>MOLECULE
tmp/1p22A00.pdb
 225 209 0 0 0
SMALL
GASTEIGER

@<TRIPOS>ATOM
      1  N         -3.1540   13.4260   -3.8810 N.3   128  TYR128     -0.1241
      2  CA        -2.2850   13.2550   -2.7020 C.3   128  TYR128      0.1605
      3  C         -1.0540   14.2040   -2.6890 C.2   128  TYR128      0.2264
      4  O         -0.7700   14.9110   -1.7180 O.2   128  TYR128     -0.2867
      5  CB        -1.8240   11.7960   -2.5950 C.3   128  TYR128      0.0534
      6  CG        -2.8080   10.8710   -1.9270 C.ar  128  TYR128     -0.0201
      7  CD1       -3.0970   10.9790   -0.5670 C.ar  128  TYR128     -0.0009
      8  CD2       -3.4400    9.8660   -2.6450 C.ar  128  TYR128     -0.0009
      9  CE1       -4.0150   10.1050    0.0580 C.ar  128  TYR128      0.0417
     10  CE2       -4.3470    8.9920   -2.0310 C.ar  128  TYR128      0.0417
     11  CZ        -4.6290    9.1140   -0.6870 C.ar  128  TYR128      0.1957
     12  OH        -5.5210    8.2530   -0.1020 O.3   128  TYR128     -0.2866
     13  N         -5.6530    9.8200   -6.6110 N.3   142  ARG142     -0.1197
     14  CA        -5.9280    8.6170   -5.8320 C.3   142  ARG142      0.1779
     15  C         -6.5350    7.5530   -6.7440 C.2   142  ARG142      0.2305
     16  O         -6.6180    6.3680   -6.3790 O.2   142  ARG142     -0.2863
     17  CB        -6.8540    8.9440   -4.6530 C.2   142  ARG142     -0.0007
     18  CG        -7.2660    7.7520   -3.7790 C.2   142  ARG142      0.0176
     19  CD        -7.8640    8.1140   -2.4180 C.3   142  ARG142      0.2464
     20  NE        -8.1080    6.8910   -1.6600 N.pl3 142  ARG142     -0.0815
     21  CZ        -9.3080    6.3820   -1.4200 C.cat 142  ARG142      0.5349
     22  NH1      -10.3970    7.0070   -1.8320 N.pl3 142  ARG142      0.1354
     23  NH2       -9.4240    5.2550   -0.7520 N.pl3 142  ARG142      0.1354
     24  N         -2.9330    4.2420   -5.1540 N.3   166  SER166     -0.1217
     25  CA        -2.9910    5.6800   -5.3000 C.3   166  SER166      0.1889
     26  C         -1.5500    6.1200   -5.3700 C.2   166  SER166      0.2288
     27  O         -0.6990    5.5420   -4.6830 O.2   166  SER166     -0.2866
     28  CB        -3.6600    6.3050   -4.0890 C.3   166  SER166      0.2089
     29  OG        -4.6660    5.4680   -3.5840 O.3   166  SER166     -0.2183
     30  N          1.0000    8.2670   -4.0600 N.3   168  LEU168     -0.1245
     31  CA         1.0750    8.9150   -2.7440 C.3   168  LEU168      0.1561
     32  C          2.0470   10.0660   -2.6380 C.2   168  LEU168      0.2260
     33  O          1.7910   11.0070   -1.8960 O.2   168  LEU168     -0.2867
     34  CB         1.3290    7.8850   -1.6380 C.3   168  LEU168      0.0270
     35  CG         0.0190    7.1210   -1.3960 C.3   168  LEU168      0.0019
     36  CD1        0.2060    5.7790   -0.6770 C.3   168  LEU168      0.0001
     37  CD2       -1.0300    7.9730   -0.6910 C.3   168  LEU168      0.0001
     38  N          0.7020    3.4830   -3.1120 N.3   182  SER182     -0.1217
     39  CA         0.0990    2.4590   -2.2730 C.3   182  SER182      0.1889
     40  C          0.5390    1.0660   -2.6770 C.2   182  SER182      0.2288
     41  O          0.4800    0.1490   -1.8630 O.2   182  SER182     -0.2866
     42  CB        -1.4230    2.5520   -2.3280 C.3   182  SER182      0.2089
     43  OG        -1.8830    3.5640   -1.4520 O.3   182  SER182     -0.2183
     44  N          3.0450    0.5150    1.3280 N.3   206  ALA206     -0.1245
     45  CA         2.9240    1.8040    0.6410 C.3   206  ALA206      0.1562
     46  C          4.1810    2.6120    0.7240 C.2   206  ALA206      0.2260
     47  O          4.6180    2.9720    1.8260 O.2   206  ALA206     -0.2867
     48  CB         1.7600    2.6080    1.1940 C.3   206  ALA206      0.0290
     49  N          5.2580    5.8110    0.9990 N.3   208  LEU208     -0.1245
     50  CA         4.4760    6.9270    1.4870 C.3   208  LEU208      0.1561
     51  C          5.0860    8.2350    1.0010 C.2   208  LEU208      0.2260
     52  O          4.3680    9.1270    0.5320 O.2   208  LEU208     -0.2867
     53  CB         4.3760    6.9190    3.0320 C.3   208  LEU208      0.0270
     54  CG         3.6470    5.7500    3.7270 C.3   208  LEU208      0.0019
     55  CD1        3.8400    5.8630    5.2480 C.3   208  LEU208      0.0001
     56  CD2        2.1660    5.6860    3.3380 C.3   208  LEU208      0.0001
     57  N          5.2420    2.6040    4.7060 N.3   222  LYS222     -0.1245
     58  CA         4.4200    2.0400    5.7880 C.3   222  LYS222      0.1561
     59  C          5.1560    0.8930    6.4860 C.2   222  LYS222      0.2260
     60  O          4.9160    0.6250    7.6550 O.2   222  LYS222     -0.2867
     61  CB         3.0310    1.5700    5.2820 C.3   222  LYS222      0.0271
     62  CG         2.0920    1.0020    6.4050 C.3   222  LYS222      0.0035
     63  CD         0.5740    1.0330    6.1060 C.3   222  LYS222      0.0206
     64  CE         0.1500   -0.0500    5.0950 C.3   222  LYS222      0.1093
     65  NZ        -1.2280    0.0740    4.4810 N.3   222  LYS222     -0.1314
     66  N          7.9360    0.7980    7.6620 N.3   224  ARG224     -0.1245
     67  CA         8.7710    1.3220    8.7780 C.3   224  ARG224      0.1563
     68  C         10.1860    1.7300    8.4100 C.2   224  ARG224      0.2260
     69  O         10.9020    2.2640    9.2580 O.2   224  ARG224     -0.2867
     70  CB         8.8290    0.3670    9.9930 C.3   224  ARG224      0.0307
     71  CG         7.5200    0.2200   10.7490 C.3   224  ARG224      0.0489
     72  CD         7.4330   -0.9730   11.6810 C.3   224  ARG224      0.2205
     73  NE         6.0320   -1.2740   11.9750 N.pl3 224  ARG224     -0.0865
     74  CZ         5.5770   -1.7410   13.1380 C.cat 224  ARG224      0.5346
     75  NH1        6.4030   -1.9690   14.1570 N.pl3 224  ARG224      0.1354
     76  NH2        4.2800   -1.9740   13.2890 N.pl3 224  ARG224      0.1354
     77  N          9.6520    2.9520   14.5860 N.3   247  ARG247     -0.1231
     78  CA         8.8140    1.9110   15.1530 C.3   247  ARG247      0.1694
     79  C          7.4480    1.8510   14.5100 C.2   247  ARG247      0.2592
     80  O          6.6030    1.0570   14.9240 O.2   247  ARG247     -0.2718
     81  CB         8.6730    2.1350   16.6600 C.3   247  ARG247      0.0321
     82  CG         9.8990    1.6570   17.4130 C.3   247  ARG247      0.0489
     83  CD        10.1320    2.2530   18.8010 C.3   247  ARG247      0.2205
     84  NE        10.7470    1.2380   19.6360 N.pl3 247  ARG247     -0.0865
     85  CZ        10.0500    0.3320   20.3040 C.cat 247  ARG247      0.5346
     86  NH1        8.7200    0.3460   20.2630 N.pl3 247  ARG247      0.1354
     87  NH2       10.6710   -0.5840   21.0320 N.pl3 247  ARG247      0.1354
     88  N          7.2160    2.7000   13.5180 N.am  248  ALA248     -0.1966
     89  CA         5.9460    2.7120   12.7920 C.3   248  ALA248      0.1728
     90  C          6.1850    3.3400   11.4170 C.2   248  ALA248      0.2616
     91  O          7.3450    3.6100   11.0600 O.2   248  ALA248     -0.2715
     92  CB         4.8800    3.4680   13.5870 C.3   248  ALA248      0.0334
     93  N          5.1110    3.5770   10.6610 N.am  249  ALA249     -0.1977
     94  CA         5.1850    4.1330    9.3050 C.3   249  ALA249      0.1597
     95  C          6.0660    5.3630    9.2620 C.2   249  ALA249      0.2287
     96  O          5.9850    6.2360   10.1320 O.2   249  ALA249     -0.2864
     97  CB         3.7820    4.4760    8.7720 C.3   249  ALA249      0.0319
     98  N          6.3350    8.5180    7.4980 N.3   251  ASN251     -0.1240
     99  CA         5.4560    9.3280    6.6960 C.3   251  ASN251      0.1653
    100  C          6.1780   10.3360    5.7880 C.2   251  ASN251      0.2266
    101  O          5.6440   10.7750    4.7710 O.2   251  ASN251     -0.2867
    102  CB         4.4520   10.0110    7.6180 C.3   251  ASN251      0.1155
    103  CG         3.6170    9.0030    8.4340 C.2   251  ASN251      0.2627
    104  OD1        3.0270    8.0440    7.8800 O.2   251  ASN251     -0.2716
    105  ND2        3.5380    9.2310    9.7520 N.am  251  ASN251     -0.0877
    106  N          4.9630    7.9430   12.5970 N.3   265  GLY265     -0.1210
    107  CA         3.8310    8.0030   13.4890 C.3   265  GLY265      0.1956
    108  C          4.2330    7.4310   14.8220 C.2   265  GLY265      0.2612
    109  O          3.3760    7.2320   15.7050 O.2   265  GLY265     -0.2717
    110  N          5.5350    7.1580   14.9410 N.am  266  ASP266     -0.1959
    111  CA         6.1490    6.8180   16.2070 C.3   266  ASP266      0.1840
    112  C          6.4850    8.0880   16.9870 C.2   266  ASP266      0.2621
    113  O          7.1380    8.0400   18.0340 O.2   266  ASP266     -0.2715
    114  CB         7.3600    5.8690   16.0150 C.3   266  ASP266      0.1450
    115  CG         8.6750    6.5810   15.5680 C.2   266  ASP266      0.3671
    116  OD1        9.7580    5.9310   15.6510 O.co2 266  ASP266     -0.2456
    117  OD2        8.7540    7.7520   15.1120 O.co2 266  ASP266     -0.2456
    118  N          6.0240    9.2250   16.4680 N.am  267  ARG267     -0.1977
    119  CA         6.1990   10.5230   17.1080 C.3   267  ARG267      0.1597
    120  C          7.6460   11.0760   17.1300 C.2   267  ARG267      0.2287
    121  O          7.9520   11.9780   17.9250 O.2   267  ARG267     -0.2864
    122  CB         5.6570   10.4640   18.5260 C.3   267  ARG267      0.0334
    123  CG         4.2620    9.9840   18.6190 C.3   267  ARG267      0.0492
    124  CD         3.9150    9.5050   19.9890 C.3   267  ARG267      0.2205
    125  NE         2.5400    9.0280   20.0780 N.pl3 267  ARG267     -0.0865
    126  CZ         1.9600    8.6510   21.1960 C.cat 267  ARG267      0.5346
    127  NH1        2.6060    8.6980   22.3380 N.pl3 267  ARG267      0.1354
    128  NH2        0.7150    8.2350   21.1750 N.pl3 267  ARG267      0.1354
    129  N          2.1000   13.3510   19.2960 N.3   288  ARG288     -0.1231
    130  CA         1.4090   12.4040   18.4510 C.3   288  ARG288      0.1694
    131  C          2.2580   12.2460   17.1970 C.2   288  ARG288      0.2593
    132  O          3.3530   12.7710   17.1280 O.2   288  ARG288     -0.2718
    133  CB         0.0360   12.9730   18.0890 C.3   288  ARG288      0.0321
    134  CG        -1.0670   12.8280   19.1200 C.3   288  ARG288      0.0489
    135  CD        -1.8960   11.5700   18.9270 C.3   288  ARG288      0.2205
    136  NE        -3.3370   11.8350   19.0150 N.pl3 288  ARG288     -0.0865
    137  CZ        -4.2560   11.4450   18.1250 C.cat 288  ARG288      0.5346
    138  NH1       -3.9160   10.7440   17.0530 N.pl3 288  ARG288      0.1354
    139  NH2       -5.5350   11.7490   18.3160 N.pl3 288  ARG288      0.1354
    140  N          1.7610   11.5530   16.1870 N.am  289  GLY289     -0.1942
    141  CA         2.5590   11.2610   15.0070 C.3   289  GLY289      0.2014
    142  C          2.8590   12.4400   14.0960 C.2   289  GLY289      0.2639
    143  O          2.0780   13.3970   14.0580 O.2   289  GLY289     -0.2714
    144  N          3.9890   12.3750   13.3760 N.am  290  ILE290     -0.1963
    145  CA         4.3420   13.4030   12.3910 C.3   290  ILE290      0.1727
    146  C          3.8340   13.0280   11.0180 C.2   290  ILE290      0.2616
    147  O          4.0910   11.9300   10.5150 O.2   290  ILE290     -0.2715
    148  CB         5.8810   13.6910   12.3250 C.3   290  ILE290      0.0290
    149  CG1        6.3580   14.3440   13.6160 C.3   290  ILE290      0.0022
    150  CG2        6.2510   14.5890   11.1060 C.3   290  ILE290      0.0023
    151  CD1        7.1190   13.4230   14.4860 C.3   290  ILE290      0.0001
    152  N          3.1200   13.9650   10.4090 N.am  291  ALA291     -0.1977
    153  CA         2.5840   13.7500    9.0870 C.3   291  ALA291      0.1597
    154  C          3.4330   14.4130    8.0140 C.2   291  ALA291      0.2287
    155  O          3.3200   14.0090    6.8580 O.2   291  ALA291     -0.2864
    156  CB         1.1670   14.2350    9.0220 C.3   291  ALA291      0.0319
    157  N         -0.2760   14.9940   14.0980 N.3   305  SER305     -0.1217
    158  CA        -1.5840   14.5780   14.6020 C.3   305  SER305      0.1889
    159  C         -1.9280   15.3080   15.8730 C.2   305  SER305      0.2288
    160  O         -3.0960   15.3840   16.2130 O.2   305  SER305     -0.2866
    161  CB        -1.6120   13.0970   14.9460 C.3   305  SER305      0.2089
    162  OG        -1.0840   12.3320   13.8960 O.3   305  SER305     -0.2183
    163  N         -5.4990   17.8010   12.2520 N.3   329  LEU329     -0.1245
    164  CA        -4.2310   17.1950   11.8330 C.3   329  LEU329      0.1561
    165  C         -3.5630   18.0210   10.7480 C.2   329  LEU329      0.2260
    166  O         -4.2050   18.4410    9.7860 O.2   329  LEU329     -0.2867
    167  CB        -4.5270   15.7600   11.3550 C.3   329  LEU329      0.0270
    168  CG        -3.6800   14.6730   10.6620 C.3   329  LEU329      0.0019
    169  CD1       -2.6860   15.1840    9.5890 C.3   329  LEU329      0.0001
    170  CD2       -3.0060   13.7790   11.6670 C.3   329  LEU329      0.0001
    171  N         -1.4740   18.0190    7.7280 N.3   331  ARG331     -0.1245
    172  CA        -1.0370   17.0010    6.7480 C.3   331  ARG331      0.1563
    173  C          0.1340   17.4060    5.8740 C.2   331  ARG331      0.2260
    174  O          0.8370   16.5310    5.3670 O.2   331  ARG331     -0.2867
    175  CB        -2.1810   16.4890    5.8500 C.3   331  ARG331      0.0307
    176  CG        -2.1040   14.9560    5.4640 C.3   331  ARG331      0.0489
    177  CD        -1.0430   14.5440    4.4140 C.3   331  ARG331      0.2205
    178  NE        -1.0670   13.1230    4.0360 N.pl3 331  ARG331     -0.0865
    179  CZ        -0.6530   12.6380    2.8430 C.cat 331  ARG331      0.5346
    180  NH1       -0.1860   13.4520    1.9050 N.pl3 331  ARG331      0.1354
    181  NH2       -0.7080   11.3360    2.5690 N.pl3 331  ARG331      0.1354
    182  N         -6.4750   18.9650    8.2030 N.3   345  TYR345     -0.1241
    183  CA        -7.5500   18.0260    7.8630 C.3   345  TYR345      0.1605
    184  C         -8.8780   18.6720    7.5250 C.2   345  TYR345      0.2264
    185  O         -9.5620   18.2310    6.6190 O.2   345  TYR345     -0.2867
    186  CB        -7.7240   16.9730    8.9500 C.3   345  TYR345      0.0534
    187  CG        -7.1070   15.6500    8.5640 C.ar  345  TYR345     -0.0201
    188  CD1       -6.1160   15.5930    7.5900 C.ar  345  TYR345     -0.0009
    189  CD2       -7.4970   14.4580    9.1760 C.ar  345  TYR345     -0.0009
    190  CE1       -5.5470   14.4030    7.2170 C.ar  345  TYR345      0.0417
    191  CE2       -6.9200   13.2550    8.8080 C.ar  345  TYR345      0.0417
    192  CZ        -5.9500   13.2500    7.8210 C.ar  345  TYR345      0.1957
    193  OH        -5.3460   12.1030    7.4190 O.3   345  TYR345     -0.2866
    194  N         -9.7280   17.1270    3.2160 N.3   378  ARG378     -0.1245
    195  CA        -8.3580   17.1130    3.7210 C.3   378  ARG378      0.1563
    196  C         -7.3630   17.7360    2.7550 C.2   378  ARG378      0.2260
    197  O         -7.4450   17.4730    1.5570 O.2   378  ARG378     -0.2867
    198  CB        -7.9420   15.6630    4.0010 C.3   378  ARG378      0.0307
    199  CG        -8.4530   15.1050    5.2950 C.3   378  ARG378      0.0489
    200  CD        -9.0230   13.7640    5.1330 C.3   378  ARG378      0.2205
    201  NE        -8.9470   12.9450    6.3290 N.pl3 378  ARG378     -0.0865
    202  CZ        -9.1590   11.6370    6.3270 C.cat 378  ARG378      0.5346
    203  NH1       -9.4740   11.0230    5.1770 N.pl3 378  ARG378      0.1354
    204  NH2       -9.0680   10.9390    7.4630 N.pl3 378  ARG378      0.1354
    205  N         -3.9010   17.6020    1.3570 N.3   380  PHE380     -0.1241
    206  CA        -2.8730   16.5750    1.2570 C.3   380  PHE380      0.1605
    207  C         -1.4740   17.1590    1.0100 C.2   380  PHE380      0.2264
    208  O         -0.5190   16.7400    1.6500 O.2   380  PHE380     -0.2867
    209  CB        -3.2270   15.5650    0.1510 C.3   380  PHE380      0.0534
    210  CG        -4.3150   14.5880    0.5170 C.ar  380  PHE380     -0.0203
    211  CD1       -5.2200   14.1470   -0.4480 C.ar  380  PHE380     -0.0042
    212  CD2       -4.4330   14.0770    1.8170 C.ar  380  PHE380     -0.0042
    213  CE1       -6.2450   13.2220   -0.1170 C.ar  380  PHE380     -0.0003
    214  CE2       -5.4620   13.1420    2.1500 C.ar  380  PHE380     -0.0003
    215  CZ        -6.3500   12.7260    1.1850 C.ar  380  PHE380     -0.0000
    216  N         -8.3110   16.2990   -0.5220 N.3   394  HIS394     -0.1241
    217  CA        -9.2870   15.2270   -0.6990 C.3   394  HIS394      0.1621
    218  C        -10.1930   15.6300   -1.8690 C.2   394  HIS394      0.2264
    219  O         -9.8490   15.3230   -3.0030 O.2   394  HIS394     -0.2867
    220  CB       -10.0680   15.0140    0.6030 C.3   394  HIS394      0.0745
    221  CG       -10.8150   13.7150    0.6790 C.ar  394  HIS394      0.0817
    222  ND1      -10.2030   12.5170    0.9860 N.ar  394  HIS394     -0.2268
    223  CD2      -12.1320   13.4340    0.5340 C.ar  394  HIS394      0.1154
    224  CE1      -11.1030   11.5490    0.9990 C.ar  394  HIS394      0.1986
    225  NE2      -12.2840   12.0780    0.7330 N.ar  394  HIS394     -0.2212
@<TRIPOS>BOND
     1    15    16    2
     2    15    14    1
     3    13    14    1
     4    14    17    1
     5    26    25    1
     6    26    27    2
     7    25    24    1
     8    25    28    1
     9    17    18    2
    10    28    29    1
    11    30    31    1
    12     1     2    1
    13    18    19    1
    14    38    39    1
    15   219   218    2
    16    31    32    1
    17    31    34    1
    18     2     3    1
    19     2     5    1
    20     3     4    2
    21    40    39    1
    22    40    41    2
    23     8    10   ar
    24     8     6   ar
    25    32    33    2
    26     5     6    1
    27    19    20    1
    28    42    39    1
    29    42    43    1
    30    10    11   ar
    31     6     7   ar
    32   218   217    1
    33    22    21    1
    34    20    21    2
    35    34    35    1
    36    21    23    1
    37    35    37    1
    38    35    36    1
    39   217   216    1
    40   217   220    1
    41    11    12    1
    42    11     9   ar
    43     7     9   ar
    44   211   213   ar
    45   211   210   ar
    46   213   215   ar
    47   209   210    1
    48   209   206    1
    49   210   212   ar
    50    52    51    2
    51   223   221   ar
    52   223   225   ar
    53   220   221    1
    54    45    46    1
    55    45    48    1
    56    45    44    1
    57   221   222   ar
    58    46    47    2
    59   225   224   ar
    60   222   224   ar
    61    49    50    1
    62    51    50    1
    63   207   206    1
    64   207   208    2
    65   215   214   ar
    66   206   205    1
    67    50    53    1
    68   197   196    2
    69   212   214   ar
    70   180   179    1
    71   181   179    1
    72   196   195    1
    73   179   178    2
    74    53    54    1
    75   194   195    1
    76    56    54    1
    77   195   198    1
    78    54    55    1
    79   198   199    1
    80   178   177    1
    81   177   176    1
    82    65    64    1
    83    57    58    1
    84   101   100    2
    85    64    63    1
    86   200   199    1
    87   200   201    1
    88   203   202    1
    89    61    58    1
    90    61    62    1
    91   174   173    2
    92   176   175    1
    93    58    59    1
    94   100    99    1
    95   175   172    1
    96   173   172    1
    97    63    62    1
    98   202   201    2
    99   202   204    1
   100    59    60    2
   101   185   184    2
   102    99    98    1
   103    99   102    1
   104   172   171    1
   105   155   154    2
   106   190   188   ar
   107   190   192   ar
   108   193   192    1
   109   184   183    1
   110   188   187   ar
   111   102   103    1
   112    66    67    1
   113   192   191   ar
   114   183   182    1
   115   183   186    1
   116   104   103    2
   117   154   153    1
   118    68    67    1
   119    68    69    2
   120   103   105   am
   121   187   186    1
   122   187   189   ar
   123    97    94    1
   124    67    70    1
   125   191   189   ar
   126   156   153    1
   127   153   152    1
   128    95    94    1
   129    95    96    2
   130    94    93    1
   131   169   168    1
   132   166   165    2
   133    70    71    1
   134   152   146   am
   135   147   146    2
   136    93    90   am
   137   168   167    1
   138   168   170    1
   139   165   164    1
   140    71    72    1
   141   146   145    1
   142    91    90    2
   143   150   148    1
   144   167   164    1
   145    90    89    1
   146    72    73    1
   147   164   163    1
   148    73    74    2
   149   148   145    1
   150   148   149    1
   151   145   144    1
   152   106   107    1
   153    89    88    1
   154    89    92    1
   155    74    76    1
   156    74    75    1
   157   144   142   am
   158   107   108    1
   159    88    79   am
   160   149   151    1
   161   162   161    1
   162   143   142    2
   163   142   141    1
   164   157   158    1
   165    79    80    2
   166    79    78    1
   167    77    78    1
   168   158   161    1
   169   158   159    1
   170   108   110   am
   171   108   109    2
   172   110   111    1
   173   141   140    1
   174   117   115   ar
   175    78    81    1
   176   115   116   ar
   177   115   114    1
   178   159   160    2
   179   114   111    1
   180   140   131   am
   181   111   112    1
   182   118   112   am
   183   118   119    1
   184    81    82    1
   185   112   113    2
   186   138   137    1
   187   119   120    1
   188   119   122    1
   189   132   131    2
   190   120   121    2
   191   131   130    1
   192    82    83    1
   193   133   130    1
   194   133   134    1
   195   137   139    1
   196   137   136    2
   197   130   129    1
   198   122   123    1
   199   123   124    1
   200    83    84    1
   201   135   136    1
   202   135   134    1
   203    84    85    2
   204   124   125    1
   205   125   126    2
   206    86    85    1
   207    85    87    1
   208   128   126    1
   209   126   127    1
