@<TRIPOS>MOLECULE
tmp/1p2aA00.pdb
 162 155 0 0 0
SMALL
GASTEIGER

@<TRIPOS>ATOM
      1  N         14.0170  -13.5260    5.8480 N.3    10  ILE10      -0.1231
      2  CA        12.8860  -12.6800    6.2200 C.3    10  ILE10       0.1692
      3  C         13.1720  -11.1830    6.0750 C.2    10  ILE10       0.2593
      4  O         12.2910  -10.3550    6.3010 O.2    10  ILE10      -0.2718
      5  CB        12.4480  -12.9450    7.6820 C.3    10  ILE10       0.0266
      6  CG1       13.5570  -12.5150    8.6490 C.3    10  ILE10       0.0019
      7  CG2       12.1450  -14.4220    7.8770 C.3    10  ILE10       0.0020
      8  CD1       13.1890  -12.6430   10.1310 C.3    10  ILE10       0.0001
      9  N         14.4000  -10.8360    5.7020 N.am   11  GLY11      -0.1942
     10  CA        14.7500   -9.4340    5.5580 C.3    11  GLY11       0.2014
     11  C         16.0470   -9.2020    4.8100 C.2    11  GLY11       0.2638
     12  O         17.0080   -9.9540    4.9540 O.2    11  GLY11      -0.2714
     13  N         16.0790   -8.1410    4.0160 N.am   12  GLU12      -0.1977
     14  CA        17.2570   -7.8130    3.2290 C.3    12  GLU12       0.1602
     15  C         17.5000   -6.3110    3.2360 C.2    12  GLU12       0.2287
     16  O         17.9960   -5.7610    4.2190 O.2    12  GLU12      -0.2864
     17  CB        17.0610   -8.3290    1.7990 C.3    12  GLU12       0.0415
     18  CG        17.7780   -7.5510    0.7010 C.3    12  GLU12       0.1163
     19  CD        17.4570   -8.0890   -0.6910 C.2    12  GLU12       0.3649
     20  OE1       17.8610   -9.2310   -0.9960 O.co2  12  GLU12      -0.2457
     21  OE2       16.7980   -7.3770   -1.4760 O.co2  12  GLU12      -0.2457
     22  N         18.6580  -11.0300    7.0070 N.3    15  VAL15      -0.1245
     23  CA        18.0390  -11.5480    8.2280 C.3    15  VAL15       0.1561
     24  C         17.2850  -12.8400    7.9560 C.2    15  VAL15       0.2260
     25  O         16.4590  -12.9040    7.0510 O.2    15  VAL15      -0.2867
     26  CB        17.0480  -10.5360    8.8400 C.3    15  VAL15       0.0252
     27  CG1       16.5420  -11.0580   10.1810 C.3    15  VAL15       0.0019
     28  CG2       17.7270   -9.1800    9.0160 C.3    15  VAL15       0.0019
     29  N         15.7200  -14.6410   14.9950 N.3    28  ALA28      -0.1245
     30  CA        16.0160  -13.9370   13.7660 C.3    28  ALA28       0.1562
     31  C         17.5350  -13.7630   13.7350 C.2    28  ALA28       0.2260
     32  O         18.1340  -13.2860   14.7010 O.2    28  ALA28      -0.2867
     33  CB        15.3260  -12.5890   13.7670 C.3    28  ALA28       0.0290
     34  N         20.8180  -12.0130   12.0170 N.3    30  LYS30      -0.1245
     35  CA        21.2770  -10.9500   11.1460 C.3    30  LYS30       0.1561
     36  C         22.7210  -11.3270   10.7840 C.2    30  LYS30       0.2260
     37  O         23.5860  -11.4420   11.6510 O.2    30  LYS30      -0.2867
     38  CB        21.2010   -9.6010   11.8700 C.3    30  LYS30       0.0271
     39  CG        21.4310   -8.3950   10.9710 C.3    30  LYS30       0.0035
     40  CD        21.1660   -7.0950   11.7080 C.3    30  LYS30       0.0206
     41  CE        21.3650   -5.8850   10.8010 C.3    30  LYS30       0.1093
     42  NZ        20.5640   -5.9780    9.5500 N.3    30  LYS30      -0.1314
     43  N         12.7200   -5.1510   20.1970 N.3    51  VAL51      -0.1245
     44  CA        13.0940   -6.5170   19.8610 C.3    51  VAL51       0.1561
     45  C         14.4010   -6.8240   20.5820 C.2    51  VAL51       0.2260
     46  O         15.3760   -6.0850   20.4410 O.2    51  VAL51      -0.2867
     47  CB        13.3180   -6.6790   18.3470 C.3    51  VAL51       0.0252
     48  CG1       13.8400   -8.0700   18.0460 C.3    51  VAL51       0.0019
     49  CG2       12.0210   -6.4210   17.6030 C.3    51  VAL51       0.0019
     50  N         18.4880  -12.3400   17.3600 N.3    67  PHE67      -0.1227
     51  CA        17.4110  -11.5410   17.9450 C.3    67  PHE67       0.1736
     52  C         16.1510  -12.3270   18.2400 C.2    67  PHE67       0.2595
     53  O         15.9550  -13.4440   17.7560 O.2    67  PHE67      -0.2718
     54  CB        16.9840  -10.4240   16.9870 C.3    67  PHE67       0.0547
     55  CG        18.0070   -9.3570   16.7680 C.ar   67  PHE67      -0.0202
     56  CD1       18.2370   -8.3850   17.7320 C.ar   67  PHE67      -0.0042
     57  CD2       18.6960   -9.2810   15.5610 C.ar   67  PHE67      -0.0042
     58  CE1       19.1370   -7.3430   17.5000 C.ar   67  PHE67      -0.0003
     59  CE2       19.5990   -8.2420   15.3140 C.ar   67  PHE67      -0.0003
     60  CZ        19.8180   -7.2700   16.2920 C.ar   67  PHE67      -0.0000
     61  N         15.2840  -11.6980   19.0210 N.am   68  GLU68      -0.1965
     62  CA        13.9820  -12.2480   19.3460 C.3    68  GLU68       0.1733
     63  C         13.2680  -12.1820   17.9960 C.2    68  GLU68       0.2616
     64  O         13.5200  -11.2750   17.2120 O.2    68  GLU68      -0.2715
     65  CB        13.2830  -11.3470   20.3760 C.3    68  GLU68       0.0429
     66  CG        11.7870  -11.2120   20.1860 C.3    68  GLU68       0.1163
     67  CD        11.1400  -10.2940   21.2030 C.2    68  GLU68       0.3649
     68  OE1       11.7010   -9.2100   21.4750 O.co2  68  GLU68      -0.2457
     69  OE2       10.0570  -10.6520   21.7200 O.co2  68  GLU68      -0.2457
     70  N         12.3800  -13.1250   17.7240 N.am   69  PHE69      -0.1960
     71  CA        11.6760  -13.1440   16.4420 C.3    69  PHE69       0.1771
     72  C         10.1630  -12.8870   16.5360 C.2    69  PHE69       0.2619
     73  O          9.4490  -13.5880   17.2600 O.2    69  PHE69      -0.2715
     74  CB        11.9550  -14.4960   15.7480 C.3    69  PHE69       0.0574
     75  CG        10.9610  -14.8660   14.6770 C.ar   69  PHE69      -0.0200
     76  CD1        9.7150  -15.3770   15.0070 C.ar   69  PHE69      -0.0042
     77  CD2       11.2760  -14.7020   13.3330 C.ar   69  PHE69      -0.0042
     78  CE1        8.8060  -15.7150   14.0190 C.ar   69  PHE69      -0.0003
     79  CE2       10.3660  -15.0390   12.3370 C.ar   69  PHE69      -0.0003
     80  CZ         9.1330  -15.5450   12.6800 C.ar   69  PHE69      -0.0000
     81  N          9.6810  -11.8740   15.8170 N.am   70  LEU70      -0.1963
     82  CA         8.2500  -11.5770   15.7880 C.3    70  LEU70       0.1728
     83  C          7.7630  -12.0280   14.4180 C.2    70  LEU70       0.2616
     84  O          8.5370  -12.0640   13.4650 O.2    70  LEU70      -0.2715
     85  CB         7.9620  -10.0840   16.0210 C.3    70  LEU70       0.0311
     86  CG         7.8780   -9.6960   17.5030 C.3    70  LEU70       0.0022
     87  CD1        9.2780   -9.5970   18.0900 C.3    70  LEU70       0.0001
     88  CD2        7.1630   -8.3610   17.6640 C.3    70  LEU70       0.0001
     89  N          6.4850  -12.3730   14.3210 N.am   71  HIS71      -0.1959
     90  CA         5.9340  -12.8910   13.0740 C.3    71  HIS71       0.1787
     91  C          5.5920  -11.9320   11.9580 C.2    71  HIS71       0.2620
     92  O          5.5920  -12.3310   10.8020 O.2    71  HIS71      -0.2715
     93  CB         4.7090  -13.7640   13.3710 C.3    71  HIS71       0.0785
     94  CG         5.0450  -15.0510   14.0590 C.ar   71  HIS71       0.0821
     95  ND1        5.4250  -15.1110   15.3840 N.ar   71  HIS71      -0.2267
     96  CD2        5.1090  -16.3200   13.5910 C.ar   71  HIS71       0.1154
     97  CE1        5.7120  -16.3600   15.7020 C.ar   71  HIS71       0.1986
     98  NE2        5.5300  -17.1140   14.6320 N.ar   71  HIS71      -0.2212
     99  N          5.3110  -10.6740   12.2720 N.am   72  GLN72      -0.1963
    100  CA         4.9560   -9.7430   11.2110 C.3    72  GLN72       0.1733
    101  C          5.3990   -8.3050   11.4230 C.2    72  GLN72       0.2616
    102  O          5.3810   -7.7930   12.5510 O.2    72  GLN72      -0.2715
    103  CB         3.4460   -9.7880   11.0000 C.3    72  GLN72       0.0408
    104  CG         2.9470   -8.9130    9.8690 C.3    72  GLN72       0.0908
    105  CD         1.5690   -9.3190    9.3950 C.2    72  GLN72       0.2608
    106  OE1        0.8110   -8.4980    8.8850 O.2    72  GLN72      -0.2717
    107  NE2        1.2430  -10.6000    9.5450 N.am   72  GLN72      -0.0878
    108  N          5.7960   -7.6560   10.3280 N.am   73  ASP73      -0.1971
    109  CA         6.2190   -6.2640   10.3870 C.3    73  ASP73       0.1709
    110  C          5.0330   -5.3730   10.0590 C.2    73  ASP73       0.2293
    111  O          4.0760   -5.8030    9.4180 O.2    73  ASP73      -0.2864
    112  CB         7.3800   -5.9720    9.4260 C.3    73  ASP73       0.1436
    113  CG         6.9720   -6.0150    7.9640 C.2    73  ASP73       0.3671
    114  OD1        5.8630   -5.5420    7.6230 O.co2  73  ASP73      -0.2456
    115  OD2        7.7800   -6.5020    7.1440 O.co2  73  ASP73      -0.2456
    116  N         11.1170    2.7710   10.3560 N.3   116  LYS116     -0.1245
    117  CA        10.2940    2.5610    9.1840 C.3   116  LYS116      0.1561
    118  C          9.3580    1.3970    9.4710 C.2   116  LYS116      0.2260
    119  O          9.6130    0.5910   10.3610 O.2   116  LYS116     -0.2867
    120  CB        11.1690    2.2370    7.9810 C.3   116  LYS116      0.0271
    121  CG        11.8280    0.8870    8.0890 C.3   116  LYS116      0.0035
    122  CD        12.5540    0.5100    6.8130 C.3   116  LYS116      0.0206
    123  CE        13.8710    1.2490    6.6820 C.3   116  LYS116      0.1093
    124  NZ        14.7070    0.6580    5.5990 N.3   116  LYS116     -0.1314
    125  N          8.8600   -1.4550    8.1010 N.3   118  GLN118     -0.1231
    126  CA         9.5240   -2.7530    8.0910 C.3   118  GLN118      0.1698
    127  C         10.4100   -3.0230    9.3000 C.2   118  GLN118      0.2592
    128  O         10.7640   -4.1700    9.5480 O.2   118  GLN118     -0.2718
    129  CB        10.3300   -2.9200    6.8140 C.3   118  GLN118      0.0381
    130  CG         9.4470   -3.0600    5.6010 C.3   118  GLN118      0.0905
    131  CD        10.2270   -2.9890    4.3170 C.2   118  GLN118      0.2608
    132  OE1       10.9130   -1.9970    4.0560 O.2   118  GLN118     -0.2717
    133  NE2       10.1330   -4.0420    3.5000 N.am  118  GLN118     -0.0878
    134  N         10.7720   -1.9750   10.0400 N.am  119  ASN119     -0.1974
    135  CA        11.5910   -2.1220   11.2440 C.3   119  ASN119      0.1688
    136  C         10.7060   -2.1750   12.4960 C.2   119  ASN119      0.2292
    137  O         11.1990   -2.0900   13.6230 O.2   119  ASN119     -0.2864
    138  CB        12.5850   -0.9610   11.3880 C.3   119  ASN119      0.1181
    139  CG        13.8120   -1.1370   10.5350 C.2   119  ASN119      0.2629
    140  OD1       14.2840   -2.2500   10.3340 O.2   119  ASN119     -0.2716
    141  ND2       14.3490   -0.0380   10.0450 N.am  119  ASN119     -0.0877
    142  N          7.8480   -4.4590   14.4270 N.3   121  LEU121     -0.1245
    143  CA         7.2920   -5.7940   14.4610 C.3   121  LEU121      0.1561
    144  C          6.0930   -5.9170   15.3890 C.2   121  LEU121      0.2260
    145  O          6.0060   -5.2300   16.4080 O.2   121  LEU121     -0.2867
    146  CB         8.3940   -6.7650   14.8660 C.3   121  LEU121      0.0270
    147  CG         9.6660   -6.5570   14.0300 C.3   121  LEU121      0.0019
    148  CD1       10.7830   -7.4650   14.5400 C.3   121  LEU121      0.0001
    149  CD2        9.3660   -6.8400   12.5570 C.3   121  LEU121      0.0001
    150  N         12.6890   -2.5770   15.8710 N.3   131  ALA131     -0.1231
    151  CA        13.6790   -3.5690   15.4940 C.3   131  ALA131      0.1694
    152  C         14.7290   -3.0190   14.5400 C.2   131  ALA131      0.2592
    153  O         14.4930   -2.0430   13.8240 O.2   131  ALA131     -0.2718
    154  CB        12.9940   -4.7650   14.8560 C.3   131  ALA131      0.0304
    155  N         15.8970   -3.6450   14.5570 N.am  132  ASP132     -0.1974
    156  CA        16.9610   -3.2770   13.6500 C.3   132  ASP132      0.1709
    157  C         17.5610   -1.8870   13.8470 C.2   132  ASP132      0.2293
    158  O         17.7760   -1.1570   12.8780 O.2   132  ASP132     -0.2864
    159  CB        16.4340   -3.3990   12.2260 C.3   132  ASP132      0.1436
    160  CG        17.4520   -3.9410   11.2890 C.2   132  ASP132      0.3671
    161  OD1       18.6510   -3.8720   11.6340 O.co2 132  ASP132     -0.2456
    162  OD2       17.0500   -4.4300   10.2100 O.co2 132  ASP132     -0.2456
@<TRIPOS>BOND
     1    21    19   ar
     2    20    19   ar
     3    19    18    1
     4    18    17    1
     5    17    14    1
     6    14    15    1
     7    14    13    1
     8    15    16    2
     9   133   131   am
    10    13    11   am
    11   132   131    2
    12   131   130    1
    13    11    12    2
    14    11    10    1
    15    10     9    1
    16   124   123    1
    17   130   129    1
    18     9     3   am
    19     1     2    1
    20     3     2    1
    21     3     4    2
    22     2     5    1
    23   123   122    1
    24   122   121    1
    25   129   126    1
    26    22    23    1
    27    25    24    2
    28   115   113   ar
    29   114   113   ar
    30     5     7    1
    31     5     6    1
    32    24    23    1
    33   113   112    1
    34   120   121    1
    35   120   117    1
    36   126   125    1
    37   126   127    1
    38    23    26    1
    39     6     8    1
    40    26    28    1
    41    26    27    1
    42   106   105    2
    43   117   118    1
    44   117   116    1
    45   127   128    2
    46   127   134   am
    47   105   107   am
    48   105   104    1
    49   111   110    2
    50   112   109    1
    51   118   119    2
    52    42    41    1
    53   104   103    1
    54   134   135    1
    55   141   139   am
    56   110   109    1
    57   162   160   ar
    58   108   109    1
    59   108   101   am
    60   140   139    2
    61   139   138    1
    62    36    35    1
    63    36    37    2
    64    41    40    1
    65    92    91    2
    66    39    40    1
    67    39    38    1
    68   103   100    1
    69    35    38    1
    70    35    34    1
    71   100   101    1
    72   100    99    1
    73   135   138    1
    74   135   136    1
    75   160   161   ar
    76   160   159    1
    77   101   102    2
    78    91    99   am
    79    91    90    1
    80   159   156    1
    81    79    80   ar
    82    79    77   ar
    83   136   137    2
    84   149   147    1
    85    80    78   ar
    86   158   157    2
    87    90    93    1
    88    90    89    1
    89    77    75   ar
    90    93    94    1
    91    84    83    2
    92    96    94   ar
    93    96    98   ar
    94   156   157    1
    95   156   155    1
    96    31    30    1
    97    31    32    2
    98    30    33    1
    99    30    29    1
   100   153   152    2
   101    78    76   ar
   102   147   148    1
   103   147   146    1
   104    94    95   ar
   105    89    83   am
   106    83    82    1
   107   142   143    1
   108   143   146    1
   109   143   144    1
   110   152   155   am
   111   152   151    1
   112    98    97   ar
   113    75    76   ar
   114    75    74    1
   115   154   151    1
   116    59    57   ar
   117    59    60   ar
   118    95    97   ar
   119   144   145    2
   120   151   150    1
   121    57    55   ar
   122    74    71    1
   123    82    81    1
   124    82    85    1
   125    81    72   am
   126    85    86    1
   127    60    58   ar
   128    71    72    1
   129    71    70    1
   130    72    73    2
   131    55    54    1
   132    55    56   ar
   133    54    51    1
   134    64    63    2
   135    50    51    1
   136    58    56   ar
   137    86    88    1
   138    86    87    1
   139    49    47    1
   140    70    63   am
   141    53    52    2
   142    51    52    1
   143    63    62    1
   144    48    47    1
   145    52    61   am
   146    47    44    1
   147    61    62    1
   148    62    65    1
   149    44    43    1
   150    44    45    1
   151    66    65    1
   152    66    67    1
   153    46    45    2
   154    67    68   ar
   155    67    69   ar
