@<TRIPOS>MOLECULE
tmp/1p2bA00.pdb
 112 103 0 0 0
SMALL
GASTEIGER

@<TRIPOS>ATOM
      1  N         57.6870   18.5130   45.2990 N.3   373  GLN373     -0.1245
      2  CA        58.8880   17.6900   45.1960 C.3   373  GLN373      0.1566
      3  C         58.5960   16.4850   44.3180 C.2   373  GLN373      0.2260
      4  O         59.4340   16.0680   43.5190 O.2   373  GLN373     -0.2867
      5  CB        59.3540   17.2010   46.5730 C.3   373  GLN373      0.0367
      6  CG        59.7340   18.3020   47.5470 C.3   373  GLN373      0.0905
      7  CD        60.3480   17.7550   48.8240 C.2   373  GLN373      0.2608
      8  OE1       60.0650   16.6240   49.2280 O.2   373  GLN373     -0.2717
      9  NE2       61.1800   18.5600   49.4760 N.am  373  GLN373     -0.0878
     10  N         58.3960   17.5460   40.6280 N.3   376  TYR376     -0.1227
     11  CA        59.7360   17.7600   40.0760 C.3   376  TYR376      0.1736
     12  C         60.3790   16.4210   39.7240 C.2   376  TYR376      0.2595
     13  O         61.0360   16.2840   38.6860 O.2   376  TYR376     -0.2718
     14  CB        60.6380   18.5010   41.0770 C.3   376  TYR376      0.0548
     15  CG        60.4440   20.0030   41.0950 C.ar  376  TYR376     -0.0200
     16  CD1       60.1180   20.6960   39.9280 C.ar  376  TYR376     -0.0009
     17  CD2       60.6330   20.7410   42.2630 C.ar  376  TYR376     -0.0009
     18  CE1       59.9860   22.0790   39.9210 C.ar  376  TYR376      0.0417
     19  CE2       60.5040   22.1310   42.2650 C.ar  376  TYR376      0.0417
     20  CZ        60.1790   22.7920   41.0880 C.ar  376  TYR376      0.1957
     21  OH        60.0430   24.1640   41.0720 O.3   376  TYR376     -0.2866
     22  N         60.1840   15.4430   40.6030 N.am  377  GLU377     -0.1979
     23  CA        60.7240   14.1130   40.4080 C.3   377  GLU377      0.1602
     24  C         60.0260   13.4280   39.2330 C.2   377  GLU377      0.2287
     25  O         60.6590   12.7020   38.4620 O.2   377  GLU377     -0.2864
     26  CB        60.5530   13.2850   41.6820 C.3   377  GLU377      0.0415
     27  CG        61.2490   11.9380   41.6280 C.3   377  GLU377      0.1163
     28  CD        62.7640   12.0600   41.5590 C.2   377  GLU377      0.3649
     29  OE1       63.4220   11.0420   41.2560 O.co2 377  GLU377     -0.2457
     30  OE2       63.2990   13.1650   41.8140 O.co2 377  GLU377     -0.2457
     31  N         58.7620   14.9630   36.7070 N.3   379  ASN379     -0.1225
     32  CA        59.2720   15.7020   35.5560 C.3   379  ASN379      0.1785
     33  C         60.6540   15.2340   35.1040 C.2   379  ASN379      0.2597
     34  O         60.8990   15.0460   33.9120 O.2   379  ASN379     -0.2718
     35  CB        59.3170   17.2070   35.8760 C.3   379  ASN379      0.1169
     36  CG        59.5500   18.0640   34.6370 C.2   379  ASN379      0.2627
     37  OD1       58.8350   17.9380   33.6410 O.2   379  ASN379     -0.2716
     38  ND2       60.5480   18.9450   34.6960 N.am  379  ASN379     -0.0877
     39  N         61.5580   15.0400   36.0550 N.am  380  GLN380     -0.1979
     40  CA        62.9080   14.6210   35.7100 C.3   380  GLN380      0.1601
     41  C         62.9150   13.2860   34.9810 C.2   380  GLN380      0.2287
     42  O         63.4980   13.1560   33.9060 O.2   380  GLN380     -0.2864
     43  CB        63.7790   14.5400   36.9670 C.3   380  GLN380      0.0394
     44  CG        65.2810   14.4970   36.6650 C.3   380  GLN380      0.0908
     45  CD        65.7450   15.6930   35.8380 C.2   380  GLN380      0.2608
     46  OE1       65.7470   16.8300   36.3170 O.2   380  GLN380     -0.2717
     47  NE2       66.1290   15.4400   34.5870 N.am  380  GLN380     -0.0878
     48  N         61.4780   13.6670   31.4790 N.3   383  LEU383     -0.1245
     49  CA        62.3700   14.2870   30.5080 C.3   383  LEU383      0.1561
     50  C         63.5340   13.3640   30.1520 C.2   383  LEU383      0.2260
     51  O         64.0830   13.4410   29.0540 O.2   383  LEU383     -0.2867
     52  CB        62.8840   15.6290   31.0390 C.3   383  LEU383      0.0270
     53  CG        61.8000   16.7090   31.1550 C.3   383  LEU383      0.0019
     54  CD1       62.4320   18.0050   31.6280 C.3   383  LEU383      0.0001
     55  CD2       61.1030   16.9080   29.7980 C.3   383  LEU383      0.0001
     56  N         66.9570   19.3760   22.2170 N.3   394  VAL394     -0.1245
     57  CA        66.8470   20.2180   23.3930 C.3   394  VAL394      0.1561
     58  C         65.5900   21.0680   23.4850 C.2   394  VAL394      0.2260
     59  O         65.0410   21.2160   24.5730 O.2   394  VAL394     -0.2867
     60  CB        68.0810   21.1350   23.5360 C.3   394  VAL394      0.0252
     61  CG1       69.3240   20.2900   23.7640 C.3   394  VAL394      0.0019
     62  CG2       68.2460   21.9950   22.2900 C.3   394  VAL394      0.0019
     63  N         62.6460   19.1940   24.9050 N.3   397  LEU397     -0.1231
     64  CA        62.6920   19.0240   26.3490 C.3   397  LEU397      0.1693
     65  C         62.0700   20.2200   27.0630 C.2   397  LEU397      0.2591
     66  O         61.3540   20.0520   28.0490 O.2   397  LEU397     -0.2718
     67  CB        64.1390   18.8350   26.8250 C.3   397  LEU397      0.0284
     68  CG        64.9080   17.5880   26.3600 C.3   397  LEU397      0.0019
     69  CD1       66.3290   17.6510   26.9050 C.3   397  LEU397      0.0001
     70  CD2       64.2220   16.3100   26.8370 C.3   397  LEU397      0.0001
     71  N         62.3330   21.4270   26.5690 N.am  398  ARG398     -0.1980
     72  CA        61.7720   22.6100   27.2070 C.3   398  ARG398      0.1597
     73  C         60.2690   22.7110   26.9480 C.2   398  ARG398      0.2287
     74  O         59.5300   23.1970   27.7930 O.2   398  ARG398     -0.2864
     75  CB        62.4600   23.8870   26.7160 C.3   398  ARG398      0.0334
     76  CG        61.8560   24.4440   25.4480 C.3   398  ARG398      0.0492
     77  CD        62.2920   25.8730   25.1700 C.3   398  ARG398      0.2205
     78  NE        61.4700   26.4620   24.1160 N.pl3 398  ARG398     -0.0865
     79  CZ        60.1670   26.7120   24.2340 C.cat 398  ARG398      0.5346
     80  NH1       59.4960   27.2450   23.2200 N.pl3 398  ARG398      0.1354
     81  NH2       59.5340   26.4430   25.3710 N.pl3 398  ARG398      0.1354
     82  N         58.4420   19.8060   29.1740 N.3   401  SER401     -0.1217
     83  CA        58.6040   19.8890   30.6190 C.3   401  SER401      0.1889
     84  C         57.2760   20.2350   31.3090 C.2   401  SER401      0.2288
     85  O         56.4350   20.9280   30.7440 O.2   401  SER401     -0.2866
     86  CB        59.6590   20.9460   30.9550 C.3   401  SER401      0.2089
     87  OG        59.9470   20.9760   32.3430 O.3   401  SER401     -0.2183
     88  N         57.3510   21.8140   33.9360 N.3   403  VAL403     -0.1245
     89  CA        57.7210   23.0990   34.5130 C.3   403  VAL403      0.1561
     90  C         58.0200   24.1250   33.4260 C.2   403  VAL403      0.2260
     91  O         58.9110   23.9220   32.6000 O.2   403  VAL403     -0.2867
     92  CB        58.9720   22.9800   35.3990 C.3   403  VAL403      0.0252
     93  CG1       59.2580   24.3150   36.0690 C.3   403  VAL403      0.0019
     94  CG2       58.7770   21.8910   36.4380 C.3   403  VAL403      0.0019
     95  N         59.4650   27.6550   32.3730 N.3   405  GLU405     -0.1245
     96  CA        60.4350   28.6290   32.8510 C.3   405  GLU405      0.1567
     97  C         60.0180   30.0390   32.4670 C.2   405  GLU405      0.2260
     98  O         59.1970   30.2340   31.5730 O.2   405  GLU405     -0.2867
     99  CB        61.8140   28.3150   32.2640 C.3   405  GLU405      0.0388
    100  CG        62.2550   26.8790   32.4830 C.3   405  GLU405      0.1160
    101  CD        62.3730   26.5260   33.9550 C.2   405  GLU405      0.3649
    102  OE1       62.3670   25.3160   34.2820 O.co2 405  GLU405     -0.2457
    103  OE2       62.4790   27.4580   34.7840 O.co2 405  GLU405     -0.2457
    104  N         58.1720   30.7380   37.4930 N.3   409  LYS409     -0.1245
    105  CA        58.0570   29.3280   37.1700 C.3   409  LYS409      0.1561
    106  C         56.6210   28.8940   37.4320 C.2   409  LYS409      0.2260
    107  O         56.0040   29.3210   38.4110 O.2   409  LYS409     -0.2867
    108  CB        58.9930   28.4840   38.0400 C.3   409  LYS409      0.0271
    109  CG        60.4290   28.3840   37.5690 C.3   409  LYS409      0.0035
    110  CD        61.1100   27.2520   38.3180 C.3   409  LYS409      0.0206
    111  CE        62.5580   27.0570   37.9080 C.3   409  LYS409      0.1093
    112  NZ        63.1030   25.8300   38.5730 N.3   409  LYS409     -0.1314
@<TRIPOS>BOND
     1    56    57    1
     2    62    60    1
     3    80    79    1
     4    57    58    1
     5    57    60    1
     6    58    59    2
     7    60    61    1
     8    78    79    2
     9    78    77    1
    10    79    81    1
    11    63    64    1
    12    77    76    1
    13    76    75    1
    14    64    67    1
    15    64    65    1
    16    68    67    1
    17    68    70    1
    18    68    69    1
    19    71    65   am
    20    71    72    1
    21    75    72    1
    22    73    72    1
    23    73    74    2
    24    65    66    2
    25    51    50    2
    26    82    83    1
    27    55    53    1
    28    50    49    1
    29    49    52    1
    30    49    48    1
    31    83    86    1
    32    83    84    1
    33    85    84    2
    34    86    87    1
    35    52    53    1
    36    53    54    1
    37    98    97    2
    38    99   100    1
    39    99    96    1
    40    95    96    1
    41    97    96    1
    42   100   101    1
    43    91    90    2
    44    90    89    1
    45    37    36    2
    46    42    41    2
    47    34    33    2
    48    88    89    1
    49   101   102   ar
    50   101   103   ar
    51    89    92    1
    52    47    45   am
    53    36    38   am
    54    36    35    1
    55    41    40    1
    56    33    32    1
    57    33    39   am
    58    92    93    1
    59    92    94    1
    60    32    35    1
    61    32    31    1
    62    40    39    1
    63    40    43    1
    64    45    46    2
    65    45    44    1
    66    44    43    1
    67   105   106    1
    68   105   104    1
    69   105   108    1
    70   106   107    2
    71   109   108    1
    72   109   110    1
    73   111   110    1
    74   111   112    1
    75    25    24    2
    76    13    12    2
    77    24    23    1
    78    12    11    1
    79    12    22   am
    80    18    16   ar
    81    18    20   ar
    82    16    15   ar
    83    11    10    1
    84    11    14    1
    85    23    22    1
    86    23    26    1
    87    21    20    1
    88    14    15    1
    89    20    19   ar
    90    15    17   ar
    91    29    28   ar
    92    28    27    1
    93    28    30   ar
    94    27    26    1
    95    17    19   ar
    96     4     3    2
    97     3     2    1
    98     2     1    1
    99     2     5    1
   100     5     6    1
   101     6     7    1
   102     7     8    2
   103     7     9   am
