@<TRIPOS>MOLECULE
tmp/1p2dA00.pdb
 86 79 0 0 0
SMALL
GASTEIGER

@<TRIPOS>ATOM
      1  N         57.7760   18.6350   45.1920 N.3   374  GLN374     -0.1245
      2  CA        58.9540   17.7800   45.0720 C.3   374  GLN374      0.1566
      3  C         58.6430   16.5680   44.2030 C.2   374  GLN374      0.2260
      4  O         59.4710   16.1450   43.3950 O.2   374  GLN374     -0.2867
      5  CB        59.4280   17.2930   46.4430 C.3   374  GLN374      0.0367
      6  CG        59.6360   18.3950   47.4650 C.3   374  GLN374      0.0905
      7  CD        60.2540   17.8780   48.7540 C.2   374  GLN374      0.2608
      8  OE1       60.0230   16.7360   49.1560 O.2   374  GLN374     -0.2717
      9  NE2       61.0340   18.7250   49.4150 N.am  374  GLN374     -0.0878
     10  N         58.4130   17.5530   40.5740 N.3   377  TYR377     -0.1227
     11  CA        59.7470   17.7630   40.0140 C.3   377  TYR377      0.1736
     12  C         60.3880   16.4300   39.6550 C.2   377  TYR377      0.2595
     13  O         61.0620   16.3140   38.6300 O.2   377  TYR377     -0.2718
     14  CB        60.6590   18.4970   41.0010 C.3   377  TYR377      0.0548
     15  CG        60.4490   19.9900   41.0720 C.ar  377  TYR377     -0.0200
     16  CD1       60.1350   20.7260   39.9310 C.ar  377  TYR377     -0.0009
     17  CD2       60.6180   20.6780   42.2740 C.ar  377  TYR377     -0.0009
     18  CE1       59.9940   22.1090   39.9820 C.ar  377  TYR377      0.0417
     19  CE2       60.4820   22.0590   42.3360 C.ar  377  TYR377      0.0417
     20  CZ        60.1680   22.7690   41.1860 C.ar  377  TYR377      0.1957
     21  OH        60.0300   24.1370   41.2380 O.3   377  TYR377     -0.2866
     22  N         60.1880   15.4320   40.5100 N.am  378  GLU378     -0.1979
     23  CA        60.7500   14.1050   40.2730 C.3   378  GLU378      0.1602
     24  C         60.0740   13.4640   39.0610 C.2   378  GLU378      0.2287
     25  O         60.7350   12.8290   38.2370 O.2   378  GLU378     -0.2864
     26  CB        60.5730   13.2220   41.5160 C.3   378  GLU378      0.0415
     27  CG        61.1210   11.8010   41.3700 C.3   378  GLU378      0.1163
     28  CD        62.6390   11.7440   41.2430 C.2   378  GLU378      0.3649
     29  OE1       63.1690   10.6450   40.9690 O.co2 378  GLU378     -0.2457
     30  OE2       63.3030   12.7880   41.4210 O.co2 378  GLU378     -0.2457
     31  N         58.6920   15.0320   36.5320 N.3   380  ASN380     -0.1225
     32  CA        59.1600   15.7770   35.3610 C.3   380  ASN380      0.1785
     33  C         60.5340   15.3200   34.8950 C.2   380  ASN380      0.2597
     34  O         60.7960   15.1690   33.6990 O.2   380  ASN380     -0.2718
     35  CB        59.2080   17.2750   35.6790 C.3   380  ASN380      0.1169
     36  CG        59.5560   18.1130   34.4650 C.2   380  ASN380      0.2627
     37  OD1       58.9330   17.9840   33.4110 O.2   380  ASN380     -0.2716
     38  ND2       60.5540   18.9790   34.6050 N.am  380  ASN380     -0.0877
     39  N         61.4100   15.1050   35.8640 N.am  381  GLN381     -0.1979
     40  CA        62.7690   14.6870   35.5990 C.3   381  GLN381      0.1601
     41  C         62.8330   13.3160   34.9270 C.2   381  GLN381      0.2287
     42  O         63.5220   13.1460   33.9250 O.2   381  GLN381     -0.2864
     43  CB        63.5360   14.6770   36.9130 C.3   381  GLN381      0.0394
     44  CG        65.0280   14.6610   36.7660 C.3   381  GLN381      0.0908
     45  CD        65.6980   14.3850   38.0890 C.2   381  GLN381      0.2608
     46  OE1       66.2040   15.2940   38.7540 O.2   381  GLN381     -0.2717
     47  NE2       65.6820   13.1220   38.4940 N.am  381  GLN381     -0.0878
     48  N         61.3520   13.6280   31.3650 N.3   384  LEU384     -0.1245
     49  CA        62.2670   14.2470   30.4190 C.3   384  LEU384      0.1561
     50  C         63.4390   13.3360   30.0630 C.2   384  LEU384      0.2260
     51  O         63.9970   13.4430   28.9750 O.2   384  LEU384     -0.2867
     52  CB        62.7620   15.5950   30.9560 C.3   384  LEU384      0.0270
     53  CG        61.6690   16.6750   31.0110 C.3   384  LEU384      0.0019
     54  CD1       62.2630   18.0030   31.4300 C.3   384  LEU384      0.0001
     55  CD2       61.0050   16.8050   29.6510 C.3   384  LEU384      0.0001
     56  N         58.4260   19.9160   28.9980 N.3   402  SER402     -0.1217
     57  CA        58.5940   19.9970   30.4450 C.3   402  SER402      0.1889
     58  C         57.3150   20.3740   31.1890 C.2   402  SER402      0.2288
     59  O         56.5210   21.1870   30.7140 O.2   402  SER402     -0.2866
     60  CB        59.6870   21.0080   30.7910 C.3   402  SER402      0.2089
     61  OG        59.8610   21.1010   32.1920 O.3   402  SER402     -0.2183
     62  N         57.5080   21.7920   33.9270 N.3   404  VAL404     -0.1245
     63  CA        57.9060   23.0540   34.5330 C.3   404  VAL404      0.1561
     64  C         58.1400   24.0660   33.4240 C.2   404  VAL404      0.2260
     65  O         58.9340   23.8450   32.5100 O.2   404  VAL404     -0.2867
     66  CB        59.1890   22.9110   35.3710 C.3   404  VAL404      0.0252
     67  CG1       59.5190   24.2390   36.0400 C.3   404  VAL404      0.0019
     68  CG2       59.0070   21.8340   36.4190 C.3   404  VAL404      0.0019
     69  N         59.4470   27.6870   32.3760 N.3   406  GLU406     -0.1245
     70  CA        60.3230   28.7840   32.7690 C.3   406  GLU406      0.1567
     71  C         59.7130   30.1090   32.3180 C.2   406  GLU406      0.2260
     72  O         58.7040   30.1170   31.6090 O.2   406  GLU406     -0.2867
     73  CB        61.7000   28.6040   32.1340 C.3   406  GLU406      0.0388
     74  CG        62.5150   27.4770   32.7400 C.3   406  GLU406      0.1160
     75  CD        62.7590   27.6910   34.2200 C.2   406  GLU406      0.3649
     76  OE1       62.9690   28.8590   34.6190 O.co2 406  GLU406     -0.2457
     77  OE2       62.7520   26.6990   34.9790 O.co2 406  GLU406     -0.2457
     78  N         58.1310   30.8240   37.4390 N.3   410  LYS410     -0.1245
     79  CA        58.0490   29.4100   37.1140 C.3   410  LYS410      0.1561
     80  C         56.6240   28.9350   37.3580 C.2   410  LYS410      0.2260
     81  O         56.0150   29.2900   38.3640 O.2   410  LYS410     -0.2867
     82  CB        58.9850   28.5940   37.9970 C.3   410  LYS410      0.0271
     83  CG        60.3890   28.4350   37.4870 C.3   410  LYS410      0.0035
     84  CD        61.0810   27.4010   38.3430 C.3   410  LYS410      0.0206
     85  CE        62.4800   27.0910   37.8660 C.3   410  LYS410      0.1093
     86  NZ        63.1100   26.1040   38.7860 N.3   410  LYS410     -0.1314
@<TRIPOS>BOND
     1    51    50    2
     2    56    57    1
     3    55    53    1
     4    50    49    1
     5    49    52    1
     6    49    48    1
     7    57    60    1
     8    57    58    1
     9    59    58    2
    10    60    61    1
    11    52    53    1
    12    53    54    1
    13    72    71    2
    14    73    74    1
    15    73    70    1
    16    71    70    1
    17    69    70    1
    18    65    64    2
    19    74    75    1
    20    37    36    2
    21    64    63    1
    22    34    33    2
    23    42    41    2
    24    62    63    1
    25    75    76   ar
    26    75    77   ar
    27    36    38   am
    28    36    35    1
    29    63    66    1
    30    33    32    1
    31    33    39   am
    32    41    40    1
    33    32    35    1
    34    32    31    1
    35    66    67    1
    36    66    68    1
    37    40    39    1
    38    40    43    1
    39    44    43    1
    40    44    45    1
    41    79    80    1
    42    79    78    1
    43    79    82    1
    44    80    81    2
    45    83    82    1
    46    83    84    1
    47    85    84    1
    48    85    86    1
    49    45    47   am
    50    45    46    2
    51    25    24    2
    52    13    12    2
    53    24    23    1
    54    12    11    1
    55    12    22   am
    56    16    18   ar
    57    16    15   ar
    58    18    20   ar
    59    11    10    1
    60    11    14    1
    61    23    22    1
    62    23    26    1
    63    29    28   ar
    64    14    15    1
    65    15    17   ar
    66    20    21    1
    67    20    19   ar
    68    28    27    1
    69    28    30   ar
    70    27    26    1
    71    17    19   ar
    72     4     3    2
    73     3     2    1
    74     2     1    1
    75     2     5    1
    76     5     6    1
    77     6     7    1
    78     7     8    2
    79     7     9   am
