@<TRIPOS>MOLECULE
tmp/1p2gA00.pdb
 125 115 0 0 0
SMALL
GASTEIGER

@<TRIPOS>ATOM
      1  N         57.8140   18.3900   45.3860 N.3   373  GLN373     -0.1245
      2  CA        58.9780   17.5250   45.2400 C.3   373  GLN373      0.1566
      3  C         58.6340   16.3230   44.3720 C.2   373  GLN373      0.2260
      4  O         59.4340   15.8960   43.5380 O.2   373  GLN373     -0.2867
      5  CB        59.4810   17.0420   46.6060 C.3   373  GLN373      0.0367
      6  CG        59.6830   18.1510   47.6200 C.3   373  GLN373      0.0905
      7  CD        60.1930   17.6330   48.9500 C.2   373  GLN373      0.2608
      8  OE1       59.8390   16.5350   49.3780 O.2   373  GLN373     -0.2717
      9  NE2       61.0140   18.4270   49.6160 N.am  373  GLN373     -0.0878
     10  N         58.4630   17.4030   40.7380 N.3   376  TYR376     -0.1227
     11  CA        59.7980   17.6140   40.1800 C.3   376  TYR376      0.1736
     12  C         60.4280   16.2810   39.8080 C.2   376  TYR376      0.2595
     13  O         61.0420   16.1430   38.7480 O.2   376  TYR376     -0.2718
     14  CB        60.7080   18.3380   41.1790 C.3   376  TYR376      0.0548
     15  CG        60.4840   19.8370   41.2640 C.ar  376  TYR376     -0.0200
     16  CD1       60.1280   20.5750   40.1330 C.ar  376  TYR376     -0.0009
     17  CD2       60.7010   20.5270   42.4550 C.ar  376  TYR376     -0.0009
     18  CE1       60.0020   21.9600   40.1860 C.ar  376  TYR376      0.0417
     19  CE2       60.5780   21.9110   42.5170 C.ar  376  TYR376      0.0417
     20  CZ        60.2320   22.6220   41.3790 C.ar  376  TYR376      0.1957
     21  OH        60.1420   23.9960   41.4310 O.3   376  TYR376     -0.2866
     22  N         60.2680   15.3050   40.6930 N.am  377  GLU377     -0.1979
     23  CA        60.8050   13.9740   40.4820 C.3   377  GLU377      0.1602
     24  C         60.1400   13.3190   39.2720 C.2   377  GLU377      0.2287
     25  O         60.8120   12.6880   38.4500 O.2   377  GLU377     -0.2864
     26  CB        60.5910   13.1300   41.7400 C.3   377  GLU377      0.0415
     27  CG        61.1930   11.7350   41.6630 C.3   377  GLU377      0.1163
     28  CD        62.7050   11.7420   41.5070 C.2   377  GLU377      0.3649
     29  OE1       63.2600   10.6710   41.1760 O.co2 377  GLU377     -0.2457
     30  OE2       63.3430   12.8030   41.7170 O.co2 377  GLU377     -0.2457
     31  N         58.8280   14.8500   36.7940 N.3   379  ASN379     -0.1225
     32  CA        59.3150   15.5880   35.6390 C.3   379  ASN379      0.1785
     33  C         60.6990   15.1060   35.2090 C.2   379  ASN379      0.2597
     34  O         60.9580   14.8910   34.0230 O.2   379  ASN379     -0.2718
     35  CB        59.3500   17.0820   35.9620 C.3   379  ASN379      0.1169
     36  CG        59.6440   17.9260   34.7490 C.2   379  ASN379      0.2627
     37  OD1       58.9430   17.8420   33.7360 O.2   379  ASN379     -0.2716
     38  ND2       60.6840   18.7480   34.8380 N.am  379  ASN379     -0.0877
     39  N         61.5790   14.9270   36.1860 N.am  380  GLN380     -0.1979
     40  CA        62.9390   14.4670   35.9350 C.3   380  GLN380      0.1601
     41  C         62.9470   13.1540   35.1550 C.2   380  GLN380      0.2287
     42  O         63.5110   13.0670   34.0600 O.2   380  GLN380     -0.2864
     43  CB        63.6640   14.2680   37.2670 C.3   380  GLN380      0.0394
     44  CG        65.1750   14.1540   37.1500 C.3   380  GLN380      0.0908
     45  CD        65.7890   15.3470   36.4280 C.2   380  GLN380      0.2608
     46  OE1       65.8180   15.3940   35.1940 O.2   380  GLN380     -0.2717
     47  NE2       66.2630   16.3260   37.1960 N.am  380  GLN380     -0.0878
     48  N         61.4810   13.5200   31.5880 N.3   383  LEU383     -0.1231
     49  CA        62.3460   14.1530   30.6020 C.3   383  LEU383      0.1693
     50  C         63.5210   13.2490   30.2450 C.2   383  LEU383      0.2592
     51  O         64.1070   13.3750   29.1700 O.2   383  LEU383     -0.2718
     52  CB        62.8600   15.4950   31.1190 C.3   383  LEU383      0.0284
     53  CG        61.8420   16.6300   31.2590 C.3   383  LEU383      0.0019
     54  CD1       62.5620   17.8770   31.7700 C.3   383  LEU383      0.0001
     55  CD2       61.1730   16.9150   29.9240 C.3   383  LEU383      0.0001
     56  N         63.8730   12.3390   31.1480 N.am  384  ASN384     -0.1974
     57  CA        64.9600   11.4110   30.8730 C.3   384  ASN384      0.1688
     58  C         64.4920   10.4680   29.7730 C.2   384  ASN384      0.2292
     59  O         65.2810   10.0030   28.9510 O.2   384  ASN384     -0.2864
     60  CB        65.3180   10.6100   32.1250 C.3   384  ASN384      0.1181
     61  CG        66.1660   11.4000   33.1010 C.2   384  ASN384      0.2629
     62  OD1       66.3920   10.9700   34.2380 O.2   384  ASN384     -0.2716
     63  ND2       66.6490   12.5610   32.6630 N.am  384  ASN384     -0.0877
     64  N         64.5030   12.5060   26.4610 N.3   387  ALA387     -0.1245
     65  CA        65.8820   12.6570   26.0280 C.3   387  ALA387      0.1562
     66  C         66.3980   11.3790   25.3750 C.2   387  ALA387      0.2260
     67  O         67.1370   11.4360   24.3910 O.2   387  ALA387     -0.2867
     68  CB        66.7610   13.0380   27.2170 C.3   387  ALA387      0.0290
     69  N         67.0310   19.2640   22.3320 N.3   394  VAL394     -0.1245
     70  CA        66.9350   20.1210   23.5050 C.3   394  VAL394      0.1561
     71  C         65.6720   20.9780   23.5630 C.2   394  VAL394      0.2260
     72  O         65.1610   21.2500   24.6450 O.2   394  VAL394     -0.2867
     73  CB        68.1810   21.0380   23.6150 C.3   394  VAL394      0.0252
     74  CG1       68.0110   22.0300   24.7670 C.3   394  VAL394      0.0019
     75  CG2       69.4280   20.1860   23.8400 C.3   394  VAL394      0.0019
     76  N         62.6160   19.1030   24.9260 N.3   397  LEU397     -0.1231
     77  CA        62.6600   18.9750   26.3770 C.3   397  LEU397      0.1693
     78  C         62.0140   20.1730   27.0690 C.2   397  LEU397      0.2591
     79  O         61.2590   19.9990   28.0230 O.2   397  LEU397     -0.2718
     80  CB        64.1070   18.8190   26.8670 C.3   397  LEU397      0.0284
     81  CG        64.8540   17.5230   26.5160 C.3   397  LEU397      0.0019
     82  CD1       66.3080   17.6150   26.9900 C.3   397  LEU397      0.0001
     83  CD2       64.1650   16.3310   27.1720 C.3   397  LEU397      0.0001
     84  N         62.3080   21.3840   26.5980 N.am  398  ARG398     -0.1980
     85  CA        61.7290   22.5840   27.2010 C.3   398  ARG398      0.1597
     86  C         60.2190   22.5820   27.0250 C.2   398  ARG398      0.2287
     87  O         59.4780   22.8870   27.9550 O.2   398  ARG398     -0.2864
     88  CB        62.2740   23.8590   26.5550 C.3   398  ARG398      0.0334
     89  CG        63.7720   24.0780   26.6600 C.3   398  ARG398      0.0492
     90  CD        64.1820   25.4150   26.0100 C.3   398  ARG398      0.2205
     91  NE        63.6460   25.5720   24.6520 N.pl3 398  ARG398     -0.0865
     92  CZ        62.4230   26.0190   24.3630 C.cat 398  ARG398      0.5346
     93  NH1       62.0320   26.1150   23.0980 N.pl3 398  ARG398      0.1354
     94  NH2       61.5950   26.3890   25.3330 N.pl3 398  ARG398      0.1354
     95  N         58.5160   19.7550   29.2820 N.3   401  SER401     -0.1217
     96  CA        58.6860   19.8510   30.7250 C.3   401  SER401      0.1889
     97  C         57.3700   20.1800   31.4440 C.2   401  SER401      0.2288
     98  O         56.5510   20.9570   30.9460 O.2   401  SER401     -0.2866
     99  CB        59.7280   20.9240   31.0500 C.3   401  SER401      0.2089
    100  OG        59.9570   21.0010   32.4430 O.3   401  SER401     -0.2183
    101  N         57.4780   21.6180   34.0670 N.3   403  VAL403     -0.1245
    102  CA        57.8730   22.9040   34.6250 C.3   403  VAL403      0.1561
    103  C         58.1360   23.9240   33.5230 C.2   403  VAL403      0.2260
    104  O         58.9330   23.6760   32.6220 O.2   403  VAL403     -0.2867
    105  CB        59.1550   22.7770   35.4710 C.3   403  VAL403      0.0252
    106  CG1       59.4420   24.0960   36.1670 C.3   403  VAL403      0.0019
    107  CG2       59.0140   21.6540   36.4840 C.3   403  VAL403      0.0019
    108  N         59.6190   27.5440   32.5230 N.3   405  GLU405     -0.1245
    109  CA        60.5420   28.5700   32.9960 C.3   405  GLU405      0.1567
    110  C         60.0130   29.9650   32.6790 C.2   405  GLU405      0.2260
    111  O         59.0060   30.1170   31.9880 O.2   405  GLU405     -0.2867
    112  CB        61.9190   28.3930   32.3450 C.3   405  GLU405      0.0388
    113  CG        62.5590   27.0310   32.5600 C.3   405  GLU405      0.1160
    114  CD        62.5400   26.5950   34.0150 C.2   405  GLU405      0.3649
    115  OE1       62.8800   27.4180   34.8920 O.co2 405  GLU405     -0.2457
    116  OE2       62.1910   25.4240   34.2800 O.co2 405  GLU405     -0.2457
    117  N         58.0930   30.8000   37.5940 N.3   409  LYS409     -0.1245
    118  CA        58.0780   29.3780   37.2860 C.3   409  LYS409      0.1561
    119  C         56.6900   28.8310   37.5920 C.2   409  LYS409      0.2260
    120  O         56.1190   29.1220   38.6410 O.2   409  LYS409     -0.2867
    121  CB        59.1270   28.6220   38.1100 C.3   409  LYS409      0.0271
    122  CG        60.5040   28.6280   37.4790 C.3   409  LYS409      0.0035
    123  CD        61.1800   27.2610   37.5690 C.3   409  LYS409      0.0206
    124  CE        62.0740   27.1140   38.7830 C.3   409  LYS409      0.1093
    125  NZ        62.7910   25.7950   38.7900 N.3   409  LYS409     -0.1314
@<TRIPOS>BOND
     1    69    70    1
     2    93    92    1
     3    70    71    1
     4    70    73    1
     5    71    72    2
     6    73    75    1
     7    73    74    1
     8    92    91    2
     9    92    94    1
    10    67    66    2
    11    91    90    1
    12    76    77    1
    13    66    65    1
    14    90    89    1
    15    65    64    1
    16    65    68    1
    17    77    80    1
    18    77    78    1
    19    81    80    1
    20    81    82    1
    21    81    83    1
    22    88    89    1
    23    88    85    1
    24    84    78   am
    25    84    85    1
    26    86    85    1
    27    86    87    2
    28    78    79    2
    29    59    58    2
    30    51    50    2
    31    95    96    1
    32    58    57    1
    33    55    53    1
    34    50    49    1
    35    50    56   am
    36    49    52    1
    37    49    48    1
    38    96    99    1
    39    96    97    1
    40    57    56    1
    41    57    60    1
    42    98    97    2
    43    99   100    1
    44    52    53    1
    45    53    54    1
    46   111   110    2
    47    60    61    1
    48   112   113    1
    49   112   109    1
    50   108   109    1
    51   113   114    1
    52   104   103    2
    53    63    61   am
    54   110   109    1
    55    61    62    2
    56   103   102    1
    57    37    36    2
    58   114   116   ar
    59   114   115   ar
    60    34    33    2
    61    42    41    2
    62   101   102    1
    63   102   105    1
    64    36    38   am
    65    36    35    1
    66    41    40    1
    67    46    45    2
    68    33    32    1
    69    33    39   am
    70   105   106    1
    71   105   107    1
    72    32    35    1
    73    32    31    1
    74    40    39    1
    75    40    43    1
    76    45    44    1
    77    45    47   am
    78    44    43    1
    79   118   119    1
    80   118   117    1
    81   118   121    1
    82   122   123    1
    83   122   121    1
    84   123   124    1
    85   119   120    2
    86    25    24    2
    87    13    12    2
    88   124   125    1
    89    24    23    1
    90    12    11    1
    91    12    22   am
    92    16    18   ar
    93    16    15   ar
    94    11    10    1
    95    11    14    1
    96    18    20   ar
    97    23    22    1
    98    23    26    1
    99    29    28   ar
   100    14    15    1
   101    15    17   ar
   102    20    21    1
   103    20    19   ar
   104    28    27    1
   105    28    30   ar
   106    27    26    1
   107    17    19   ar
   108     4     3    2
   109     3     2    1
   110     2     1    1
   111     2     5    1
   112     5     6    1
   113     6     7    1
   114     7     8    2
   115     7     9   am
