@<TRIPOS>MOLECULE
tmp/1p2zA00.pdb
 103 96 0 0 0
SMALL
GASTEIGER

@<TRIPOS>ATOM
      1  N         50.2600    9.4570   37.7840 N.3   444  MET444     -0.1245
      2  CA        49.4760   10.5780   38.2830 C.3   444  MET444      0.1570
      3  C         48.4990   11.1260   37.2470 C.2   444  MET444      0.2261
      4  O         47.4790   11.7230   37.5950 O.2   444  MET444     -0.2867
      5  CB        50.4090   11.7040   38.7280 C.3   444  MET444      0.0387
      6  CG        51.4390   11.2890   39.7560 C.3   444  MET444      0.0595
      7  SD        52.5030   12.6610   40.2220 S.3   444  MET444     -0.1393
      8  CE        51.3160   13.7020   41.0620 C.3   444  MET444      0.0692
      9  N         47.9520   18.0140   52.2270 N.3   472  VAL472     -0.1231
     10  CA        48.4900   17.8850   50.8750 C.3   472  VAL472      0.1692
     11  C         49.1690   19.2020   50.4960 C.2   472  VAL472      0.2592
     12  O         48.5490   20.2650   50.5560 O.2   472  VAL472     -0.2718
     13  CB        47.3800   17.5950   49.8450 C.3   472  VAL472      0.0266
     14  CG1       47.9610   17.5960   48.4400 C.3   472  VAL472      0.0020
     15  CG2       46.7290   16.2530   50.1430 C.3   472  VAL472      0.0020
     16  N         50.4420   19.1200   50.1110 N.am  473  ASN473     -0.1974
     17  CA        51.2320   20.2880   49.7270 C.3   473  ASN473      0.1688
     18  C         50.4630   21.1360   48.7120 C.2   473  ASN473      0.2292
     19  O         50.3260   20.7590   47.5500 O.2   473  ASN473     -0.2864
     20  CB        52.5660   19.8410   49.1280 C.3   473  ASN473      0.1181
     21  CG        53.5450   20.9790   48.9850 C.2   473  ASN473      0.2629
     22  OD1       53.1580   22.1160   48.7130 O.2   473  ASN473     -0.2716
     23  ND2       54.8270   20.6800   49.1600 N.am  473  ASN473     -0.0877
     24  N         52.2950   22.4860   45.1830 N.3   476  ASN476     -0.1240
     25  CA        52.5090   21.6250   44.0190 C.3   476  ASN476      0.1653
     26  C         51.1470   21.6450   43.3200 C.2   476  ASN476      0.2266
     27  O         50.3340   20.7410   43.4960 O.2   476  ASN476     -0.2867
     28  CB        52.8750   20.1990   44.4450 C.3   476  ASN476      0.1155
     29  CG        54.1430   20.1510   45.2750 C.2   476  ASN476      0.2627
     30  OD1       54.9950   21.0210   45.1610 O.2   476  ASN476     -0.2716
     31  ND2       54.2760   19.1260   46.1060 N.am  476  ASN476     -0.0877
     32  N         53.6510   19.0910   39.6840 N.3   537  LEU537     -0.1231
     33  CA        53.0890   17.7930   40.0160 C.3   537  LEU537      0.1693
     34  C         53.9580   17.0580   41.0230 C.2   537  LEU537      0.2592
     35  O         53.4640   16.2680   41.8200 O.2   537  LEU537     -0.2718
     36  CB        52.9030   16.9740   38.7410 C.3   537  LEU537      0.0284
     37  CG        51.4640   16.5140   38.4840 C.3   537  LEU537      0.0019
     38  CD1       50.4680   17.6240   38.8200 C.3   537  LEU537      0.0001
     39  CD2       51.3270   16.0850   37.0350 C.3   537  LEU537      0.0001
     40  N         55.2560   17.3380   40.9910 N.am  538  GLY538     -0.1957
     41  CA        56.1750   16.7160   41.9250 C.3   538  GLY538      0.1869
     42  C         56.6800   15.3390   41.5400 C.2   538  GLY538      0.2309
     43  O         57.2840   14.6550   42.3690 O.2   538  GLY538     -0.2863
     44  N         57.2880   16.5220   55.4670 N.3   624  LYS624     -0.1245
     45  CA        57.0640   15.1760   54.9670 C.3   624  LYS624      0.1561
     46  C         58.4500   14.6740   54.5970 C.2   624  LYS624      0.2260
     47  O         59.2340   15.4010   53.9910 O.2   624  LYS624     -0.2867
     48  CB        56.1510   15.1760   53.7380 C.3   624  LYS624      0.0271
     49  CG        54.6880   15.3370   54.1020 C.3   624  LYS624      0.0035
     50  CD        53.7730   15.1410   52.9240 C.3   624  LYS624      0.0206
     51  CE        52.3250   15.2830   53.3600 C.3   624  LYS624      0.1093
     52  NZ        51.3820   15.0560   52.2330 N.3   624  LYS624     -0.1314
     53  N         59.2090   12.5410   52.4490 N.3   626  LYS626     -0.1231
     54  CA        59.2830   12.3970   50.9980 C.3   626  LYS626      0.1693
     55  C         59.6420   13.6980   50.2950 C.2   626  LYS626      0.2591
     56  O         60.1460   13.6840   49.1710 O.2   626  LYS626     -0.2718
     57  CB        57.9520   11.8750   50.4610 C.3   626  LYS626      0.0285
     58  CG        57.9380   11.6690   48.9480 C.3   626  LYS626      0.0035
     59  CD        56.7980   10.7650   48.5220 C.3   626  LYS626      0.0206
     60  CE        56.6510   10.6820   47.0090 C.3   626  LYS626      0.1093
     61  NZ        57.9440   10.5290   46.2750 N.3   626  LYS626     -0.1314
     62  N         59.3900   14.8190   50.9650 N.am  627  GLU627     -0.1979
     63  CA        59.6550   16.1350   50.3920 C.3   627  GLU627      0.1602
     64  C         60.8640   16.8090   51.0130 C.2   627  GLU627      0.2287
     65  O         61.0700   18.0110   50.8320 O.2   627  GLU627     -0.2864
     66  CB        58.4390   17.0340   50.5860 C.3   627  GLU627      0.0415
     67  CG        57.1210   16.3350   50.3320 C.3   627  GLU627      0.1163
     68  CD        55.9360   17.2480   50.5320 C.2   627  GLU627      0.3649
     69  OE1       55.9330   18.0370   51.5060 O.co2 627  GLU627     -0.2457
     70  OE2       55.0030   17.1690   49.7150 O.co2 627  GLU627     -0.2457
     71  N         61.2420   12.9440   44.3700 N.3   641  TYR641     -0.1241
     72  CA        60.2120   13.9800   44.4250 C.3   641  TYR641      0.1605
     73  C         60.7910   15.2820   43.8830 C.2   641  TYR641      0.2264
     74  O         61.9730   15.5550   44.0810 O.2   641  TYR641     -0.2867
     75  CB        59.7940   14.1650   45.8810 C.3   641  TYR641      0.0534
     76  CG        59.0270   15.4200   46.1890 C.ar  641  TYR641     -0.0201
     77  CD1       57.6560   15.5030   45.9460 C.ar  641  TYR641     -0.0009
     78  CD2       59.6620   16.5110   46.7910 C.ar  641  TYR641     -0.0009
     79  CE1       56.9340   16.6390   46.3070 C.ar  641  TYR641      0.0417
     80  CE2       58.9530   17.6490   47.1520 C.ar  641  TYR641      0.0417
     81  CZ        57.5910   17.7060   46.9150 C.ar  641  TYR641      0.1957
     82  OH        56.8780   18.8040   47.3250 O.3   641  TYR641     -0.2866
     83  N         53.2070   23.8470   55.4150 N.3   653  TYR653     -0.1241
     84  CA        51.7560   23.6880   55.3240 C.3   653  TYR653      0.1605
     85  C         51.1720   22.6570   56.2870 C.2   653  TYR653      0.2264
     86  O         50.0110   22.2670   56.1390 O.2   653  TYR653     -0.2867
     87  CB        51.3630   23.3030   53.8960 C.3   653  TYR653      0.0534
     88  CG        51.9000   21.9560   53.4530 C.ar  653  TYR653     -0.0201
     89  CD1       53.2240   21.8090   53.0380 C.ar  653  TYR653     -0.0009
     90  CD2       51.0860   20.8200   53.4780 C.ar  653  TYR653     -0.0009
     91  CE1       53.7280   20.5570   52.6590 C.ar  653  TYR653      0.0417
     92  CE2       51.5760   19.5690   53.1040 C.ar  653  TYR653      0.0417
     93  CZ        52.8970   19.4420   52.6980 C.ar  653  TYR653      0.1957
     94  OH        53.3850   18.1970   52.3520 O.3   653  TYR653     -0.2866
     95  N         52.0810    8.3150   57.1000 N.3   852  GLU852     -0.1245
     96  CA        53.2970    8.3510   56.2970 C.3   852  GLU852      0.1567
     97  C         54.4060    8.9760   57.1320 C.2   852  GLU852      0.2260
     98  O         54.1410    9.7650   58.0410 O.2   852  GLU852     -0.2867
     99  CB        53.0740    9.1490   55.0070 C.3   852  GLU852      0.0388
    100  CG        53.1840   10.6540   55.1420 C.3   852  GLU852      0.1160
    101  CD        52.7050   11.3820   53.8860 C.2   852  GLU852      0.3649
    102  OE1       51.4760   11.5780   53.7420 O.co2 852  GLU852     -0.2457
    103  OE2       53.5530   11.7470   53.0390 O.co2 852  GLU852     -0.2457
@<TRIPOS>BOND
     1    39    37    1
     2     3     4    2
     3     3     2    1
     4     1     2    1
     5     2     5    1
     6    37    36    1
     7    37    38    1
     8     5     6    1
     9    36    33    1
    10    32    33    1
    11     6     7    1
    12    33    34    1
    13     7     8    1
    14    40    34   am
    15    40    41    1
    16    34    35    2
    17    42    41    1
    18    42    43    2
    19    26    27    2
    20    26    25    1
    21    73    74    2
    22    73    72    1
    23    25    28    1
    24    25    24    1
    25    71    72    1
    26    72    75    1
    27    28    29    1
    28    30    29    2
    29    29    31   am
    30    75    76    1
    31    77    76   ar
    32    77    79   ar
    33    76    78   ar
    34    61    60    1
    35    79    81   ar
    36    78    80   ar
    37    81    80   ar
    38    81    82    1
    39    60    59    1
    40    19    18    2
    41    14    13    1
    42    59    58    1
    43    18    17    1
    44    22    21    2
    45    58    57    1
    46    21    20    1
    47    21    23   am
    48    20    17    1
    49    56    55    2
    50    70    68   ar
    51    17    16    1
    52    13    15    1
    53    13    10    1
    54    16    11   am
    55    55    62   am
    56    55    54    1
    57    67    68    1
    58    67    66    1
    59    63    66    1
    60    63    62    1
    61    63    64    1
    62    57    54    1
    63    11    12    2
    64    11    10    1
    65    68    69   ar
    66    65    64    2
    67    10     9    1
    68    54    53    1
    69    52    51    1
    70    94    93    1
    71    91    93   ar
    72    91    89   ar
    73    93    92   ar
    74    50    51    1
    75    50    49    1
    76    89    88   ar
    77   103   101   ar
    78    92    90   ar
    79    88    90   ar
    80    88    87    1
    81    48    49    1
    82    48    45    1
    83   102   101   ar
    84   101   100    1
    85    87    84    1
    86    47    46    2
    87    46    45    1
    88    45    44    1
    89    99   100    1
    90    99    96    1
    91    84    83    1
    92    84    85    1
    93    86    85    2
    94    96    95    1
    95    96    97    1
    96    97    98    2
