@<TRIPOS>MOLECULE
tmp/1p31A00.pdb
 185 173 0 0 0
SMALL
GASTEIGER

@<TRIPOS>ATOM
      1  N         54.7000   58.7920  -12.7960 N.3    13  GLY13      -0.1225
      2  CA        54.3600   59.4540  -11.5480 C.3    13  GLY13       0.1811
      3  C         55.4480   59.2140  -10.5200 C.2    13  GLY13       0.2280
      4  O         55.1620   58.9840   -9.3420 O.2    13  GLY13      -0.2866
      5  N         57.4970   61.0080   -8.9080 N.3    15  GLY15      -0.1210
      6  CA        57.5980   61.9090   -7.7700 C.3    15  GLY15       0.1956
      7  C         56.6440   61.5920   -6.6280 C.2    15  GLY15       0.2612
      8  O         56.6910   62.2420   -5.5820 O.2    15  GLY15      -0.2717
      9  N         55.7700   60.6060   -6.8280 N.am   16  GLY16      -0.1942
     10  CA        54.8300   60.1840   -5.7980 C.3    16  GLY16       0.2014
     11  C         55.5310   59.7290   -4.5310 C.2    16  GLY16       0.2639
     12  O         56.6420   59.2120   -4.5860 O.2    16  GLY16      -0.2714
     13  N         54.8880   59.9350   -3.3870 N.am   17  ALA17      -0.1963
     14  CA        55.4690   59.5700   -2.0880 C.3    17  ALA17       0.1728
     15  C         55.9170   58.0990   -2.0020 C.2    17  ALA17       0.2616
     16  O         57.0250   57.8010   -1.5310 O.2    17  ALA17      -0.2715
     17  CB        54.5030   59.9150   -0.9640 C.3    17  ALA17       0.0334
     18  N         55.0740   57.1910   -2.4820 N.am   18  GLY18      -0.1955
     19  CA        55.3870   55.7670   -2.4870 C.3    18  GLY18       0.1869
     20  C         56.1970   55.3600   -3.7020 C.2    18  GLY18       0.2309
     21  O         57.1260   54.5410   -3.5980 O.2    18  GLY18      -0.2863
     22  N         58.3860   57.1420   -5.3420 N.3    19  SER19      -0.1217
     23  CA        59.7630   57.6230   -5.3060 C.3    19  SER19       0.1889
     24  C         60.6430   56.7580   -4.4160 C.2    19  SER19       0.2288
     25  O         61.8290   56.5860   -4.7000 O.2    19  SER19      -0.2866
     26  CB        59.8300   59.0850   -4.8520 C.3    19  SER19       0.2089
     27  OG        59.4570   59.2370   -3.4960 O.3    19  SER19      -0.2183
     28  N         56.8760   62.6460  -14.4690 N.3    36  ASP36      -0.1225
     29  CA        55.9690   63.2530  -13.5130 C.3    36  ASP36       0.1805
     30  C         55.5190   64.5700  -14.1040 C.2    36  ASP36       0.2598
     31  O         56.2350   65.1590  -14.9120 O.2    36  ASP36      -0.2718
     32  CB        56.6680   63.5050  -12.1820 C.3    36  ASP36       0.1424
     33  CG        55.6950   63.5480  -11.0220 C.2    36  ASP36       0.3668
     34  OD1       55.6060   62.5450  -10.2780 O.co2  36  ASP36      -0.2456
     35  OD2       54.9770   64.5460  -10.7830 O.co2  36  ASP36      -0.2456
     36  N         54.3380   65.0290  -13.7020 N.am   37  ILE37      -0.1966
     37  CA        53.8480   66.3320  -14.1410 C.3    37  ILE37       0.1727
     38  C         54.4780   67.4760  -13.3430 C.2    37  ILE37       0.2616
     39  O         54.3260   68.6440  -13.7040 O.2    37  ILE37      -0.2715
     40  CB        52.2980   66.4010  -14.1080 C.3    37  ILE37       0.0290
     41  CG1       51.7430   66.0230  -12.7270 C.3    37  ILE37       0.0022
     42  CG2       51.7040   65.5210  -15.2100 C.3    37  ILE37       0.0023
     43  CD1       50.3560   66.6040  -12.4550 C.3    37  ILE37       0.0001
     44  N         55.1950   67.1400  -12.2710 N.am   38  ALA38      -0.1977
     45  CA        55.8240   68.1540  -11.4190 C.3    38  ALA38       0.1597
     46  C         57.2630   67.8190  -11.0440 C.2    38  ALA38       0.2287
     47  O         57.5880   66.6650  -10.7670 O.2    38  ALA38      -0.2864
     48  CB        54.9880   68.3830  -10.1540 C.3    38  ALA38       0.0319
     49  N         54.3030   64.0510  -19.7180 N.3    57  HIS57      -0.1241
     50  CA        54.1520   62.6760  -20.1780 C.3    57  HIS57       0.1621
     51  C         54.2400   62.5870  -21.6950 C.2    57  HIS57       0.2264
     52  O         53.6530   63.4040  -22.4020 O.2    57  HIS57      -0.2867
     53  CB        52.8320   62.0820  -19.6890 C.3    57  HIS57       0.0745
     54  CG        52.7460   61.9520  -18.2020 C.ar   57  HIS57       0.0817
     55  ND1       53.6800   61.2640  -17.4580 N.ar   57  HIS57      -0.2268
     56  CD2       51.8360   62.4290  -17.3200 C.ar   57  HIS57       0.1154
     57  CE1       53.3440   61.3160  -16.1810 C.ar   57  HIS57       0.1986
     58  NE2       52.2280   62.0140  -16.0710 N.ar   57  HIS57      -0.2212
     59  N         51.5760   54.8020  -10.8880 N.3    71  SER71      -0.1202
     60  CA        50.8940   55.2890   -9.6940 C.3    71  SER71       0.2020
     61  C         49.3900   55.2470   -9.9150 C.2    71  SER71       0.2619
     62  O         48.9220   55.4150  -11.0400 O.2    71  SER71      -0.2717
     63  CB        51.3200   56.7200   -9.3520 C.3    71  SER71       0.2103
     64  OG        50.4030   57.2820   -8.4160 O.3    71  SER71      -0.2182
     65  N         48.6460   55.0240   -8.8340 N.am   72  SER72      -0.1937
     66  CA        47.1880   55.0710   -8.8570 C.3    72  SER72       0.2055
     67  C         46.6570   56.4380   -9.2980 C.2    72  SER72       0.2643
     68  O         45.4980   56.5580   -9.7030 O.2    72  SER72      -0.2714
     69  CB        46.6270   54.7080   -7.4780 C.3    72  SER72       0.2130
     70  OG        46.7390   53.3120   -7.2460 O.3    72  SER72      -0.2179
     71  N         47.5110   57.4580   -9.2230 N.am   73  ALA73      -0.1963
     72  CA        47.1490   58.8120   -9.6340 C.3    73  ALA73       0.1728
     73  C         47.0850   58.9700  -11.1570 C.2    73  ALA73       0.2616
     74  O         46.4870   59.9180  -11.6600 O.2    73  ALA73      -0.2715
     75  CB        48.1210   59.8330   -9.0310 C.3    73  ALA73       0.0334
     76  N         47.7030   58.0370  -11.8780 N.am   74  ILE74      -0.1963
     77  CA        47.8120   58.1100  -13.3370 C.3    74  ILE74       0.1727
     78  C         46.5090   57.6880  -14.0240 C.2    74  ILE74       0.2616
     79  O         45.8850   56.7000  -13.6350 O.2    74  ILE74      -0.2715
     80  CB        49.0130   57.2440  -13.8340 C.3    74  ILE74       0.0290
     81  CG1       50.3160   57.6370  -13.1190 C.3    74  ILE74       0.0022
     82  CG2       49.1930   57.3470  -15.3450 C.3    74  ILE74       0.0023
     83  CD1       50.7060   59.1120  -13.2820 C.3    74  ILE74       0.0001
     84  N         46.1200   58.4470  -15.0470 N.am   75  LYS75      -0.1977
     85  CA        44.8890   58.2030  -15.8030 C.3    75  LYS75       0.1596
     86  C         45.1080   57.1590  -16.9000 C.2    75  LYS75       0.2287
     87  O         46.2310   56.9570  -17.3550 O.2    75  LYS75      -0.2864
     88  CB        44.3730   59.5120  -16.4140 C.3    75  LYS75       0.0298
     89  CG        44.2820   60.6850  -15.4360 C.3    75  LYS75       0.0038
     90  CD        44.3900   62.0220  -16.1580 C.3    75  LYS75       0.0206
     91  CE        44.0270   63.1850  -15.2400 C.3    75  LYS75       0.1093
     92  NZ        43.5370   64.3790  -15.9960 N.3    75  LYS75      -0.1314
     93  N         46.8560   58.2600  -20.1860 N.3    78  ASN78      -0.1240
     94  CA        48.2690   58.6070  -20.1210 C.3    78  ASN78       0.1653
     95  C         49.0680   57.9790  -21.2680 C.2    78  ASN78       0.2266
     96  O         48.9990   56.7680  -21.4790 O.2    78  ASN78      -0.2867
     97  CB        48.8390   58.1840  -18.7720 C.3    78  ASN78       0.1155
     98  CG        50.2850   58.5720  -18.6030 C.2    78  ASN78       0.2627
     99  OD1       51.1770   57.9580  -19.1890 O.2    78  ASN78      -0.2716
    100  ND2       50.5290   59.5880  -17.7860 N.am   78  ASN78      -0.0877
    101  N         52.2650   50.2280   -8.2720 N.3    94  ARG94      -0.1245
    102  CA        53.2760   50.5190   -7.2580 C.3    94  ARG94       0.1563
    103  C         53.4070   49.3720   -6.2350 C.2    94  ARG94       0.2260
    104  O         54.5200   48.9030   -5.9510 O.2    94  ARG94      -0.2867
    105  CB        52.8800   51.8240   -6.5610 C.3    94  ARG94       0.0307
    106  CG        53.8220   52.3310   -5.4820 C.3    94  ARG94       0.0489
    107  CD        53.1460   53.2650   -4.4890 C.3    94  ARG94       0.2205
    108  NE        51.9100   52.6800   -3.9730 N.pl3  94  ARG94      -0.0865
    109  CZ        51.8530   51.8280   -2.9580 C.cat  94  ARG94       0.5346
    110  NH1       52.9660   51.4690   -2.3220 N.pl3  94  ARG94       0.1354
    111  NH2       50.6800   51.3340   -2.5740 N.pl3  94  ARG94       0.1354
    112  N         50.3880   55.1520    9.9060 N.3   114  LYS114     -0.1245
    113  CA        51.2570   54.2100    9.1980 C.3   114  LYS114      0.1561
    114  C         52.6330   54.8000    8.9270 C.2   114  LYS114      0.2260
    115  O         53.6350   54.1200    9.0690 O.2   114  LYS114     -0.2867
    116  CB        50.6650   53.7800    7.8570 C.3   114  LYS114      0.0271
    117  CG        49.3570   53.0110    7.9160 C.3   114  LYS114      0.0035
    118  CD        49.0170   52.4970    6.5080 C.3   114  LYS114      0.0206
    119  CE        48.6390   53.6220    5.5380 C.3   114  LYS114      0.1093
    120  NZ        47.3720   54.3100    5.9430 N.3   114  LYS114     -0.1314
    121  N         58.8170   54.1290    3.1000 N.3   134  ASN134     -0.1225
    122  CA        57.7700   54.8190    3.8230 C.3   134  ASN134      0.1785
    123  C         56.9520   55.7200    2.8950 C.2   134  ASN134      0.2597
    124  O         57.4400   56.1320    1.8390 O.2   134  ASN134     -0.2718
    125  CB        58.3780   55.6320    4.9660 C.3   134  ASN134      0.1169
    126  CG        57.3820   55.9480    6.0550 C.2   134  ASN134      0.2627
    127  OD1       56.2850   55.4010    6.0800 O.2   134  ASN134     -0.2716
    128  ND2       57.7640   56.8340    6.9710 N.am  134  ASN134     -0.0877
    129  N         55.7090   56.0160    3.2960 N.am  135  GLY135     -0.1957
    130  CA        54.8400   56.9280    2.5550 C.3   135  GLY135      0.1869
    131  C         55.0740   58.4010    2.8570 C.2   135  GLY135      0.2309
    132  O         54.3080   59.2700    2.4380 O.2   135  GLY135     -0.2863
    133  N         55.4180   50.7990    4.5510 N.3   156  GLU156     -0.1245
    134  CA        54.0440   51.2490    4.7040 C.3   156  GLU156      0.1567
    135  C         53.1720   50.5160    3.6810 C.2   156  GLU156      0.2260
    136  O         53.5430   50.4180    2.4980 O.2   156  GLU156     -0.2867
    137  CB        53.9590   52.7650    4.4940 C.3   156  GLU156      0.0388
    138  CG        52.5490   53.3150    4.5980 C.3   156  GLU156      0.1160
    139  CD        52.5010   54.8360    4.6100 C.2   156  GLU156      0.3649
    140  OE1       53.4600   55.4730    5.1120 O.co2 156  GLU156     -0.2457
    141  OE2       51.4960   55.3940    4.1150 O.co2 156  GLU156     -0.2457
    142  N         49.5540   50.2870    1.8260 N.3   158  ASP158     -0.1239
    143  CA        48.4200   51.1080    1.4430 C.3   158  ASP158      0.1674
    144  C         47.1810   50.2620    1.1940 C.2   158  ASP158      0.2266
    145  O         47.1740   49.3750    0.3420 O.2   158  ASP158     -0.2867
    146  CB        48.7690   51.9510    0.2090 C.3   158  ASP158      0.1410
    147  CG        47.7150   53.0070   -0.1050 C.2   158  ASP158      0.3668
    148  OD1       46.9460   53.3990    0.8000 O.co2 158  ASP158     -0.2456
    149  OD2       47.5890   53.5000   -1.2440 O.co2 158  ASP158     -0.2456
    150  N         44.3200   51.7910    0.3640 N.3   160  SER160     -0.1202
    151  CA        43.4190   52.7140   -0.3560 C.3   160  SER160      0.2020
    152  C         42.8900   52.2390   -1.7010 C.2   160  SER160      0.2618
    153  O         41.8810   52.7620   -2.1870 O.2   160  SER160     -0.2717
    154  CB        44.0770   54.0870   -0.5250 C.3   160  SER160      0.2103
    155  OG        45.1680   54.0260   -1.4220 O.3   160  SER160     -0.2182
    156  N         43.5720   51.2650   -2.3000 N.am  161  ASP161     -0.1973
    157  CA        43.1490   50.6690   -3.5650 C.3   161  ASP161      0.1709
    158  C         43.1710   49.1410   -3.4610 C.2   161  ASP161      0.2293
    159  O         43.2170   48.4390   -4.4740 O.2   161  ASP161     -0.2864
    160  CB        44.0390   51.1610   -4.7230 C.3   161  ASP161      0.1436
    161  CG        45.5260   51.2260   -4.3500 C.2   161  ASP161      0.3671
    162  OD1       45.9120   50.7080   -3.2760 O.co2 161  ASP161     -0.2456
    163  OD2       46.3870   51.7800   -5.0720 O.co2 161  ASP161     -0.2456
    164  N         38.8580   56.2390    2.1110 N.3   179  HIS179     -0.1241
    165  CA        39.0340   55.6720    0.7660 C.3   179  HIS179      0.1621
    166  C         37.8520   54.8090    0.3460 C.2   179  HIS179      0.2264
    167  O         38.0170   53.7880   -0.3310 O.2   179  HIS179     -0.2867
    168  CB        40.3360   54.8680    0.6840 C.3   179  HIS179      0.0745
    169  CG        41.5390   55.6200    1.1600 C.ar  179  HIS179      0.0817
    170  ND1       42.0220   56.7360    0.5110 N.ar  179  HIS179     -0.2268
    171  CD2       42.3550   55.4180    2.2220 C.ar  179  HIS179      0.1154
    172  CE1       43.0850   57.1890    1.1510 C.ar  179  HIS179      0.1986
    173  NE2       43.3110   56.4040    2.1910 N.ar  179  HIS179     -0.2212
    174  N         50.1690   66.9930    8.4210 N.3   323  TYR323     -0.1241
    175  CA        49.4420   66.4380    7.2800 C.3   323  TYR323      0.1605
    176  C         47.9430   66.2320    7.5390 C.2   323  TYR323      0.2264
    177  O         47.1450   66.1420    6.5880 O.2   323  TYR323     -0.2867
    178  CB        50.0860   65.0910    6.9140 C.3   323  TYR323      0.0534
    179  CG        49.6450   64.5030    5.6010 C.ar  323  TYR323     -0.0201
    180  CD1       48.9630   63.2870    5.5610 C.ar  323  TYR323     -0.0009
    181  CD2       49.9200   65.1470    4.3950 C.ar  323  TYR323     -0.0009
    182  CE1       48.5650   62.7250    4.3430 C.ar  323  TYR323      0.0417
    183  CE2       49.5250   64.5960    3.1800 C.ar  323  TYR323      0.0417
    184  CZ        48.8520   63.3870    3.1630 C.ar  323  TYR323      0.1957
    185  OH        48.4560   62.8450    1.9580 O.3   323  TYR323     -0.2866
@<TRIPOS>BOND
     1    52    51    2
     2    51    50    1
     3    96    95    2
     4    95    94    1
     5    93    94    1
     6    50    49    1
     7    50    53    1
     8    94    97    1
     9    53    54    1
    10    99    98    2
    11    97    98    1
    12    98   100   am
    13    54    55   ar
    14    54    56   ar
    15    55    57   ar
    16    87    86    2
    17    56    58   ar
    18    86    85    1
    19    88    85    1
    20    88    89    1
    21    57    58   ar
    22    90    89    1
    23    90    91    1
    24    92    91    1
    25    85    84    1
    26    82    80    1
    27    42    40    1
    28    84    78   am
    29    31    30    2
    30    28    29    1
    31    37    40    1
    32    37    36    1
    33    37    38    1
    34    40    41    1
    35    30    36   am
    36    30    29    1
    37    78    79    2
    38    78    77    1
    39    80    77    1
    40    80    81    1
    41    39    38    2
    42    29    32    1
    43    38    44   am
    44    77    76    1
    45    83    81    1
    46     1     2    1
    47    41    43    1
    48    44    45    1
    49    32    33    1
    50    76    73   am
    51    74    73    2
    52     2     3    1
    53    45    46    1
    54    45    48    1
    55    73    72    1
    56    46    47    2
    57    62    61    2
    58    33    35   ar
    59    33    34   ar
    60    59    60    1
    61     3     4    2
    62    61    60    1
    63    61    65   am
    64    68    67    2
    65    60    63    1
    66    72    71    1
    67    72    75    1
    68    63    64    1
    69    67    71   am
    70    67    66    1
    71     5     6    1
    72    66    65    1
    73    66    69    1
    74   101   102    1
    75     6     7    1
    76    69    70    1
    77   102   105    1
    78   102   103    1
    79     9     7   am
    80     9    10    1
    81     7     8    2
    82   105   106    1
    83   103   104    2
    84    10    11    1
    85   106   107    1
    86    22    23    1
    87    23    26    1
    88    23    24    1
    89   163   161   ar
    90    26    27    1
    91   160   161    1
    92   160   157    1
    93    25    24    2
    94    12    11    2
    95    11    13   am
    96   107   108    1
    97   159   158    2
    98   161   162   ar
    99   108   109    2
   100    20    21    2
   101    20    19    1
   102   157   158    1
   103   157   156    1
   104    13    14    1
   105   109   111    1
   106   109   110    1
   107    19    18    1
   108    18    15   am
   109   156   152   am
   110   153   152    2
   111    14    15    1
   112    14    17    1
   113    15    16    2
   114   152   151    1
   115   155   154    1
   116   149   147   ar
   117   154   151    1
   118   151   150    1
   119   167   166    2
   120   147   146    1
   121   147   148   ar
   122   146   143    1
   123   145   144    2
   124   166   165    1
   125   170   172   ar
   126   170   169   ar
   127   168   165    1
   128   168   169    1
   129   165   164    1
   130   172   173   ar
   131   169   171   ar
   132   144   143    1
   133   143   142    1
   134   124   123    2
   135   185   184    1
   136   173   171   ar
   137   132   131    2
   138   136   135    2
   139   130   131    1
   140   130   129    1
   141   123   129   am
   142   123   122    1
   143   121   122    1
   144   184   183   ar
   145   184   182   ar
   146   183   181   ar
   147   135   134    1
   148   122   125    1
   149   141   139   ar
   150   182   180   ar
   151   181   179   ar
   152   137   138    1
   153   137   134    1
   154   133   134    1
   155   138   139    1
   156   139   140   ar
   157   125   126    1
   158   119   120    1
   159   119   118    1
   160   180   179   ar
   161   179   178    1
   162   126   127    2
   163   126   128   am
   164   118   117    1
   165   177   176    2
   166   178   175    1
   167   175   176    1
   168   175   174    1
   169   116   117    1
   170   116   113    1
   171   114   115    2
   172   114   113    1
   173   113   112    1
