@<TRIPOS>MOLECULE
tmp/1p33C01.pdb
 164 158 0 0 0
SMALL
GASTEIGER

@<TRIPOS>ATOM
      1  N         38.8600  -10.9700   19.1370 N.3    14  ARG14      -0.1245
      2  CA        39.0910   -9.6020   18.7420 C.3    14  ARG14       0.1563
      3  C         39.7100   -8.7270   19.8200 C.2    14  ARG14       0.2260
      4  O         40.6690   -9.1330   20.4820 O.2    14  ARG14      -0.2867
      5  CB        37.7630   -9.0460   18.2600 C.3    14  ARG14       0.0307
      6  CG        37.1790   -9.9360   17.1700 C.3    14  ARG14       0.0489
      7  CD        35.6560   -9.9710   17.1460 C.3    14  ARG14       0.2205
      8  NE        35.0840   -8.7140   16.6940 N.pl3  14  ARG14      -0.0865
      9  CZ        35.4430   -8.0940   15.5750 C.cat  14  ARG14       0.5346
     10  NH1       36.3760   -8.6220   14.7950 N.pl3  14  ARG14       0.1354
     11  NH2       34.8700   -6.9440   15.2400 N.pl3  14  ARG14       0.1354
     12  N         34.3210   -4.7700   27.9840 N.3   100  ASN100     -0.1240
     13  CA        34.5650   -4.8770   26.5580 C.3   100  ASN100      0.1653
     14  C         33.4160   -5.5080   25.7990 C.2   100  ASN100      0.2266
     15  O         33.1500   -5.1320   24.6700 O.2   100  ASN100     -0.2867
     16  CB        35.8170   -5.7130   26.3330 C.3   100  ASN100      0.1155
     17  CG        36.0560   -6.0040   24.8900 C.2   100  ASN100      0.2627
     18  OD1       36.4490   -5.1290   24.1290 O.2   100  ASN100     -0.2716
     19  ND2       35.8120   -7.2400   24.4920 N.am  100  ASN100     -0.0877
     20  N         30.2190   -6.3450   23.9860 N.3   102  SER102     -0.1217
     21  CA        29.2460   -5.4410   23.3710 C.3   102  SER102      0.1889
     22  C         28.5190   -5.9310   22.1110 C.2   102  SER102      0.2288
     23  O         29.1440   -6.3690   21.1460 O.2   102  SER102     -0.2866
     24  CB        29.9200   -4.1110   23.0410 C.3   102  SER102      0.2089
     25  OG        29.0520   -3.2900   22.2850 O.3   102  SER102     -0.2183
     26  N         26.2690   -5.2280   18.7470 N.3   104  PHE104     -0.1241
     27  CA        26.2760   -4.1090   17.8150 C.3   104  PHE104      0.1605
     28  C         25.5660   -4.3670   16.4880 C.2   104  PHE104      0.2264
     29  O         26.1450   -4.9180   15.5470 O.2   104  PHE104     -0.2867
     30  CB        27.7280   -3.7060   17.5480 C.3   104  PHE104      0.0534
     31  CG        27.9000   -2.7070   16.4320 C.ar  104  PHE104     -0.0203
     32  CD1       27.4270   -1.4030   16.5640 C.ar  104  PHE104     -0.0042
     33  CD2       28.5700   -3.0650   15.2560 C.ar  104  PHE104     -0.0042
     34  CE1       27.6210   -0.4650   15.5450 C.ar  104  PHE104     -0.0003
     35  CE2       28.7720   -2.1350   14.2280 C.ar  104  PHE104     -0.0003
     36  CZ        28.2960   -0.8300   14.3750 C.ar  104  PHE104     -0.0000
     37  N         21.9810   -2.7780   13.8660 N.3   106  PRO106     -0.2116
     38  CA        20.9430   -1.7910   13.5520 C.3   106  PRO106      0.1372
     39  C         19.6570   -1.9170   14.3500 C.2   106  PRO106      0.2244
     40  O         19.2220   -3.0070   14.6930 O.2   106  PRO106     -0.2868
     41  CB        20.7020   -2.0070   12.0620 C.3   106  PRO106      0.0268
     42  CG        22.0140   -2.4510   11.5720 C.3   106  PRO106      0.0207
     43  CD        22.4490   -3.4340   12.6330 C.3   106  PRO106      0.0892
     44  N         32.9220    4.4180   22.3370 N.3   161  ASP161     -0.1239
     45  CA        32.9250    4.5830   20.8930 C.3   161  ASP161      0.1674
     46  C         33.1590    6.0430   20.5450 C.2   161  ASP161      0.2266
     47  O         32.3530    6.9060   20.8890 O.2   161  ASP161     -0.2867
     48  CB        31.5760    4.1200   20.3370 C.3   161  ASP161      0.1410
     49  CG        31.5870    3.9120   18.8340 C.2   161  ASP161      0.3668
     50  OD1       32.4010    4.5560   18.1340 O.co2 161  ASP161     -0.2456
     51  OD2       30.7550    3.1100   18.3490 O.co2 161  ASP161     -0.2456
     52  N         26.0670    6.5920   13.9150 N.3   168  LEU168     -0.1231
     53  CA        26.0770    5.7290   12.7410 C.3   168  LEU168      0.1693
     54  C         24.6080    5.5650   12.4040 C.2   168  LEU168      0.2592
     55  O         23.8460    5.0170   13.1950 O.2   168  LEU168     -0.2718
     56  CB        26.6890    4.3630   13.0710 C.3   168  LEU168      0.0284
     57  CG        26.8110    3.3640   11.9100 C.3   168  LEU168      0.0019
     58  CD1       27.7920    3.8970   10.8600 C.3   168  LEU168      0.0001
     59  CD2       27.2880    2.0170   12.4440 C.3   168  LEU168      0.0001
     60  N         24.2110    6.0530   11.2390 N.am  169  LEU169     -0.1966
     61  CA        22.8180    5.9910   10.8150 C.3   169  LEU169      0.1728
     62  C         22.1930    4.6070   10.9870 C.2   169  LEU169      0.2617
     63  O         22.7230    3.6110   10.4900 O.2   169  LEU169     -0.2715
     64  CB        22.7040    6.4380    9.3560 C.3   169  LEU169      0.0311
     65  CG        21.3060    6.4710    8.7330 C.3   169  LEU169      0.0022
     66  CD1       20.4000    7.4380    9.4850 C.3   169  LEU169      0.0001
     67  CD2       21.4370    6.8830    7.2750 C.3   169  LEU169      0.0001
     68  N         21.0710    4.5550   11.7010 N.am  170  GLY170     -0.1940
     69  CA        20.3800    3.2980   11.9080 C.3   170  GLY170      0.2014
     70  C         20.6850    2.5730   13.2060 C.2   170  GLY170      0.2638
     71  O         19.9750    1.6400   13.5830 O.2   170  GLY170     -0.2714
     72  N         21.7350    2.9960   13.8990 N.am  171  TYR171     -0.1973
     73  CA        22.1210    2.3580   15.1480 C.3   171  TYR171      0.1639
     74  C         21.7860    3.1840   16.3950 C.2   171  TYR171      0.2290
     75  O         22.6540    3.4250   17.2440 O.2   171  TYR171     -0.2864
     76  CB        23.6180    2.0620   15.1180 C.3   171  TYR171      0.0560
     77  CG        24.0020    0.9560   14.1760 C.ar  171  TYR171     -0.0198
     78  CD1       23.9430    1.1320   12.7980 C.ar  171  TYR171     -0.0009
     79  CD2       24.4460   -0.2690   14.6670 C.ar  171  TYR171     -0.0009
     80  CE1       24.3230    0.1140   11.9330 C.ar  171  TYR171      0.0417
     81  CE2       24.8250   -1.2880   13.8180 C.ar  171  TYR171      0.0417
     82  CZ        24.7660   -1.0940   12.4540 C.ar  171  TYR171      0.1957
     83  OH        25.1590   -2.1130   11.6150 O.3   171  TYR171     -0.2866
     84  N         22.1200    1.2720   19.9470 N.3   174  TYR174     -0.1241
     85  CA        23.5460    1.1140   20.2110 C.3   174  TYR174      0.1605
     86  C         24.1390    2.4280   20.7070 C.2   174  TYR174      0.2264
     87  O         24.6960    2.4960   21.7850 O.2   174  TYR174     -0.2867
     88  CB        24.2630    0.6900   18.9360 C.3   174  TYR174      0.0534
     89  CG        25.7630    0.6930   19.0660 C.ar  174  TYR174     -0.0201
     90  CD1       26.4300   -0.3460   19.7050 C.ar  174  TYR174     -0.0009
     91  CD2       26.5160    1.7510   18.5680 C.ar  174  TYR174     -0.0009
     92  CE1       27.8170   -0.3270   19.8410 C.ar  174  TYR174      0.0417
     93  CE2       27.8930    1.7820   18.7020 C.ar  174  TYR174      0.0417
     94  CZ        28.5350    0.7460   19.3370 C.ar  174  TYR174      0.1957
     95  OH        29.8940    0.8020   19.4790 O.3   174  TYR174     -0.2866
     96  N         25.9820    3.4350   24.4050 N.3   178  LYS178     -0.1245
     97  CA        27.3590    3.8790   24.5660 C.3   178  LYS178      0.1561
     98  C         27.4270    5.1840   25.3270 C.2   178  LYS178      0.2260
     99  O         28.2890    5.3700   26.1780 O.2   178  LYS178     -0.2867
    100  CB        28.0270    4.0410   23.2140 C.3   178  LYS178      0.0271
    101  CG        28.4040    2.7290   22.5920 C.3   178  LYS178      0.0035
    102  CD        29.3220    1.9430   23.5140 C.3   178  LYS178      0.0206
    103  CE        29.7960    0.6660   22.8430 C.3   178  LYS178      0.1093
    104  NZ        30.6620   -0.1790   23.7030 N.3   178  LYS178     -0.1314
    105  N         38.0690    3.9800   17.0450 N.3   205  GLY205     -0.1210
    106  CA        37.4140    4.5630   15.8830 C.3   205  GLY205      0.1956
    107  C         37.1090    3.3950   14.9650 C.2   205  GLY205      0.2612
    108  O         35.9620    2.9640   14.8220 O.2   205  GLY205     -0.2717
    109  N         38.1650    2.8670   14.3610 N.am  206  LEU206     -0.1965
    110  CA        38.0560    1.7160   13.4880 C.3   206  LEU206      0.1728
    111  C         39.1490    0.7120   13.8470 C.2   206  LEU206      0.2617
    112  O         40.3180    0.9240   13.5380 O.2   206  LEU206     -0.2715
    113  CB        38.2020    2.1340   12.0210 C.3   206  LEU206      0.0311
    114  CG        37.1480    3.0620   11.4140 C.3   206  LEU206      0.0022
    115  CD1       37.4100    3.2280    9.9240 C.3   206  LEU206      0.0001
    116  CD2       35.7670    2.4770   11.6270 C.3   206  LEU206      0.0001
    117  N         38.7800   -0.3600   14.5360 N.am  207  SER207     -0.1936
    118  CA        39.7430   -1.4070   14.8780 C.3   207  SER207      0.2055
    119  C         39.2710   -2.6700   14.1880 C.2   207  SER207      0.2643
    120  O         38.2410   -2.6440   13.5180 O.2   207  SER207     -0.2714
    121  CB        39.8110   -1.6400   16.3860 C.3   207  SER207      0.2130
    122  OG        40.8250   -0.8400   16.9620 O.3   207  SER207     -0.2179
    123  N         40.0140   -3.7630   14.3400 N.am  208  VAL208     -0.1963
    124  CA        39.6320   -5.0250   13.7120 C.3   208  VAL208      0.1727
    125  C         38.1700   -4.9650   13.2610 C.2   208  VAL208      0.2616
    126  O         37.2540   -5.2630   14.0300 O.2   208  VAL208     -0.2715
    127  CB        39.8320   -6.2040   14.6840 C.3   208  VAL208      0.0290
    128  CG1       41.3060   -6.5380   14.7880 C.3   208  VAL208      0.0023
    129  CG2       39.2930   -5.8400   16.0610 C.3   208  VAL208      0.0023
    130  N         37.9610   -4.5400   12.0160 N.am  209  LEU209     -0.1964
    131  CA        36.6180   -4.4160   11.4630 C.3   209  LEU209      0.1713
    132  C         35.8500   -5.7290   11.6300 C.2   209  LEU209      0.2458
    133  O         36.4390   -6.8130   11.5770 O.2   209  LEU209     -0.2730
    134  CB        36.6960   -3.9940    9.9880 C.3   209  LEU209      0.0310
    135  CG        37.3990   -2.6550    9.7160 C.3   209  LEU209      0.0022
    136  CD1       37.5420   -2.4520    8.2250 C.3   209  LEU209      0.0001
    137  CD2       36.6140   -1.5040   10.3300 C.3   209  LEU209      0.0001
    138  N         34.5160   -5.6430   11.7970 N.am  210  PRO210     -0.2727
    139  CA        33.6800   -6.8320   11.9820 C.3   210  PRO210      0.1402
    140  C         33.8850   -7.6800   10.7580 C.2   210  PRO210      0.2269
    141  O         33.7290   -7.1970    9.6370 O.2   210  PRO210     -0.2865
    142  CB        32.2790   -6.2530   12.0420 C.3   210  PRO210      0.0296
    143  CG        32.3430   -5.2170   10.9490 C.3   210  PRO210      0.0237
    144  CD        33.7380   -4.5860   11.1220 C.3   210  PRO210      0.0939
    145  N         32.7830   -8.8510    6.4220 N.3   213  MET213     -0.1245
    146  CA        32.5780   -7.5610    5.7820 C.3   213  MET213      0.1570
    147  C         33.5400   -7.6270    4.5960 C.2   213  MET213      0.2261
    148  O         34.7570   -7.6530    4.7760 O.2   213  MET213     -0.2867
    149  CB        32.9760   -6.4240    6.7300 C.3   213  MET213      0.0387
    150  CG        32.8750   -5.0360    6.1230 C.3   213  MET213      0.0595
    151  SD        33.5210   -3.7240    7.1910 S.3   213  MET213     -0.1393
    152  CE        32.0450   -2.8590    7.5320 C.3   213  MET213      0.0692
    153  N         36.4250    1.8370    4.0470 N.3   221  TYR221     -0.1241
    154  CA        36.2190    2.3970    5.3780 C.3   221  TYR221      0.1605
    155  C         37.5640    2.9830    5.8140 C.2   221  TYR221      0.2264
    156  O         37.6490    4.1220    6.2700 O.2   221  TYR221     -0.2867
    157  CB        35.8100    1.3070    6.3710 C.3   221  TYR221      0.0534
    158  CG        34.3320    1.2540    6.6580 C.ar  221  TYR221     -0.0201
    159  CD1       33.4500    0.6190    5.7860 C.ar  221  TYR221     -0.0009
    160  CD2       33.8090    1.8720    7.7910 C.ar  221  TYR221     -0.0009
    161  CE1       32.0760    0.6020    6.0340 C.ar  221  TYR221      0.0417
    162  CE2       32.4430    1.8640    8.0500 C.ar  221  TYR221      0.0417
    163  CZ        31.5810    1.2280    7.1670 C.ar  221  TYR221      0.1957
    164  OH        30.2270    1.2280    7.4190 O.3   221  TYR221     -0.2866
@<TRIPOS>BOND
     1   153   154    1
     2   147   148    2
     3   147   146    1
     4   154   155    1
     5   154   157    1
     6   146   145    1
     7   146   149    1
     8   159   161   ar
     9   159   158   ar
    10   155   156    2
    11   161   163   ar
    12   150   149    1
    13   150   151    1
    14   157   158    1
    15   158   160   ar
    16   163   164    1
    17   163   162   ar
    18   151   152    1
    19    67    65    1
    20   160   162   ar
    21   136   135    1
    22    65    64    1
    23    65    66    1
    24    64    61    1
    25   141   140    2
    26   135   134    1
    27   135   137    1
    28   115   114    1
    29   134   131    1
    30    63    62    2
    31   140   139    1
    32    61    62    1
    33    61    60    1
    34    58    57    1
    35   143   144    1
    36   143   142    1
    37    62    68   am
    38   144   138    1
    39    60    54   am
    40   114   116    1
    41   114   113    1
    42   131   132    1
    43   131   130    1
    44    42    41    1
    45    42    43    1
    46   133   132    2
    47    83    82    1
    48   132   138   am
    49    68    69    1
    50   138   139    1
    51    69    70    1
    52    57    59    1
    53    57    56    1
    54    80    82   ar
    55    80    78   ar
    56   139   142    1
    57   130   125   am
    58   113   110    1
    59    41    38    1
    60    54    53    1
    61    54    55    2
    62    82    81   ar
    63    43    37    1
    64    53    56    1
    65    53    52    1
    66    78    77   ar
    67    70    71    2
    68    70    72   am
    69   125   124    1
    70   125   126    2
    71   110   111    1
    72   110   109    1
    73   120   119    2
    74   112   111    2
    75    38    37    1
    76    38    39    1
    77   124   123    1
    78   124   127    1
    79    81    79   ar
    80   111   117   am
    81    72    73    1
    82    77    79   ar
    83    77    76    1
    84   119   123   am
    85   119   118    1
    86    35    36   ar
    87    35    33   ar
    88    39    40    2
    89   109   107   am
    90    36    34   ar
    91   117   118    1
    92   127   128    1
    93   127   129    1
    94    10     9    1
    95   108   107    2
    96   118   121    1
    97   107   106    1
    98    76    73    1
    99    73    74    1
   100    11     9    1
   101    33    31   ar
   102    34    32   ar
   103    29    28    2
   104     9     8    2
   105   106   105    1
   106   121   122    1
   107    74    75    2
   108    31    32   ar
   109    31    30    1
   110    28    27    1
   111     8     7    1
   112     7     6    1
   113     6     5    1
   114    30    27    1
   115    27    26    1
   116    50    49   ar
   117     5     2    1
   118    51    49   ar
   119    91    93   ar
   120    91    89   ar
   121    93    94   ar
   122     2     1    1
   123     2     3    1
   124    49    48    1
   125    88    89    1
   126    88    85    1
   127    89    90   ar
   128    94    95    1
   129    94    92   ar
   130    90    92   ar
   131     3     4    2
   132    84    85    1
   133    85    86    1
   134    48    45    1
   135    46    47    2
   136    46    45    1
   137    86    87    2
   138    45    44    1
   139    23    22    2
   140    22    21    1
   141    25    24    1
   142   101   100    1
   143   101   102    1
   144   103   102    1
   145   103   104    1
   146    24    21    1
   147   100    97    1
   148    21    20    1
   149    18    17    2
   150    96    97    1
   151    19    17   am
   152    97    98    1
   153    15    14    2
   154    17    16    1
   155    98    99    2
   156    14    13    1
   157    16    13    1
   158    13    12    1
