@<TRIPOS>MOLECULE
tmp/1p3dB01.pdb
 216 209 0 0 0
SMALL
GASTEIGER

@<TRIPOS>ATOM
      1  N         -9.2560   74.9210   74.7650 N.3   109  THR109     -0.1203
      2  CA       -10.6110   74.3950   74.7680 C.3   109  THR109      0.1994
      3  C        -11.6120   75.2990   75.4830 C.2   109  THR109      0.2618
      4  O        -12.7030   75.5400   74.9640 O.2   109  THR109     -0.2717
      5  CB       -10.6430   72.9980   75.3910 C.3   109  THR109      0.1784
      6  OG1       -9.6400   72.1890   74.7710 O.3   109  THR109     -0.2211
      7  CG2      -11.9550   72.3030   75.0460 C.3   109  THR109      0.0376
      8  N        -11.2370   75.7740   76.6740 N.am  110  HIS110     -0.1961
      9  CA       -12.1220   76.5710   77.5420 C.3   110  HIS110      0.1787
     10  C        -11.4440   77.8670   77.9310 C.2   110  HIS110      0.2621
     11  O        -10.2290   77.9050   78.1030 O.2   110  HIS110     -0.2715
     12  CB       -12.4500   75.8330   78.8570 C.3   110  HIS110      0.0785
     13  CG       -12.5850   74.3460   78.7330 C.ar  110  HIS110      0.0821
     14  ND1      -13.6730   73.7450   78.1380 N.ar  110  HIS110     -0.2267
     15  CD2      -11.7890   73.3360   79.1660 C.ar  110  HIS110      0.1154
     16  CE1      -13.5390   72.4310   78.1990 C.ar  110  HIS110      0.1986
     17  NE2      -12.4000   72.1570   78.8110 N.ar  110  HIS110     -0.2212
     18  N        -12.2480   78.9180   78.1150 N.am  111  GLY111     -0.1940
     19  CA       -11.7650   80.1970   78.6070 C.3   111  GLY111      0.2014
     20  C        -11.1940   81.1610   77.5840 C.2   111  GLY111      0.2639
     21  O        -10.6310   82.1720   77.9840 O.2   111  GLY111     -0.2714
     22  N        -11.3270   80.8810   76.2850 N.am  112  LYS112     -0.1963
     23  CA       -10.7390   81.7760   75.2740 C.3   112  LYS112      0.1728
     24  C        -11.4000   83.1460   75.2740 C.2   112  LYS112      0.2617
     25  O        -10.7230   84.1700   75.3130 O.2   112  LYS112     -0.2715
     26  CB       -10.8450   81.2020   73.8630 C.3   112  LYS112      0.0311
     27  CG       -10.1090   79.8840   73.6360 C.3   112  LYS112      0.0038
     28  CD       -10.3070   79.4330   72.1950 C.3   112  LYS112      0.0206
     29  CE       -11.7430   78.9830   71.9130 C.3   112  LYS112      0.1093
     30  NZ       -12.1250   77.7860   72.7230 N.3   112  LYS112     -0.1314
     31  N        -12.7280   83.1510   75.2380 N.am  113  THR113     -0.1937
     32  CA       -13.4810   84.4100   75.2210 C.3   113  THR113      0.2028
     33  C        -13.2220   85.2180   76.4890 C.2   113  THR113      0.2642
     34  O        -13.0370   86.4390   76.4370 O.2   113  THR113     -0.2714
     35  CB       -14.9720   84.1200   75.0310 C.3   113  THR113      0.1808
     36  OG1      -15.1880   83.6000   73.7140 O.3   113  THR113     -0.2208
     37  CG2      -15.7780   85.4050   75.0220 C.3   113  THR113      0.0379
     38  N        -13.1990   84.5350   77.6270 N.am  114  THR114     -0.1950
     39  CA       -12.9050   85.1910   78.8890 C.3   114  THR114      0.1897
     40  C        -11.5090   85.8040   78.8950 C.2   114  THR114      0.2313
     41  O        -11.3420   86.9800   79.2190 O.2   114  THR114     -0.2863
     42  CB       -13.0580   84.1990   80.0370 C.3   114  THR114      0.1794
     43  OG1      -14.4270   83.7840   80.0970 O.3   114  THR114     -0.2208
     44  CG2      -12.8290   84.8870   81.3670 C.3   114  THR114      0.0378
     45  N        -14.8390   86.4580   70.6260 N.3   133  GLY133     -0.1225
     46  CA       -15.9900   85.6470   70.2620 C.3   133  GLY133      0.1811
     47  C        -17.1050   85.7240   71.2850 C.2   133  GLY133      0.2280
     48  O        -17.7990   84.7490   71.5490 O.2   133  GLY133     -0.2866
     49  N         -9.5180   86.0750   69.7980 N.3   154  GLU154     -0.1245
     50  CA        -9.8290   84.6890   70.1010 C.3   154  GLU154      0.1567
     51  C         -9.5850   83.8400   68.8590 C.2   154  GLU154      0.2260
     52  O         -9.9600   84.2400   67.7520 O.2   154  GLU154     -0.2867
     53  CB       -11.2900   84.5860   70.5220 C.3   154  GLU154      0.0388
     54  CG       -11.7940   83.1630   70.6690 C.3   154  GLU154      0.1160
     55  CD       -13.0720   83.0840   71.4510 C.2   154  GLU154      0.3649
     56  OE1      -13.6320   84.1550   71.7790 O.co2 154  GLU154     -0.2457
     57  OE2      -13.5090   81.9490   71.7400 O.co2 154  GLU154     -0.2457
     58  N        -10.2340   80.1590   67.2430 N.3   156  ASP156     -0.1225
     59  CA       -11.0530   78.9370   67.2610 C.3   156  ASP156      0.1805
     60  C        -10.3150   77.7370   66.6730 C.2   156  ASP156      0.2597
     61  O         -9.7740   77.8160   65.5750 O.2   156  ASP156     -0.2718
     62  CB       -12.3340   79.1990   66.4620 C.3   156  ASP156      0.1424
     63  CG       -13.3420   78.0640   66.5450 C.2   156  ASP156      0.3668
     64  OD1      -13.2370   77.1980   67.4500 O.co2 156  ASP156     -0.2456
     65  OD2      -14.2870   77.9700   65.7250 O.co2 156  ASP156     -0.2456
     66  N        -10.3220   76.6240   67.4100 N.am  157  GLU157     -0.1979
     67  CA        -9.7210   75.3730   66.9630 C.3   157  GLU157      0.1602
     68  C        -10.7730   74.4050   66.4160 C.2   157  GLU157      0.2287
     69  O        -10.4230   73.3730   65.8430 O.2   157  GLU157     -0.2864
     70  CB        -8.9650   74.7020   68.1290 C.3   157  GLU157      0.0415
     71  CG        -9.8130   73.7660   68.9930 C.3   157  GLU157      0.1163
     72  CD       -10.7390   74.4760   69.9830 C.2   157  GLU157      0.3649
     73  OE1      -11.2970   73.7780   70.8520 O.co2 157  GLU157     -0.2457
     74  OE2      -10.9310   75.7160   69.9170 O.co2 157  GLU157     -0.2457
     75  N         -4.9940   77.9500   76.7340 N.3   172  THR172     -0.1203
     76  CA        -5.5190   77.8890   78.0920 C.3   172  THR172      0.1994
     77  C         -5.5470   76.4740   78.6390 C.2   172  THR172      0.2617
     78  O         -5.3370   76.2550   79.8230 O.2   172  THR172     -0.2717
     79  CB        -6.9430   78.4530   78.1380 C.3   172  THR172      0.1784
     80  OG1       -7.7450   77.7860   77.1480 O.3   172  THR172     -0.2211
     81  CG2       -6.9670   79.9370   77.7480 C.3   172  THR172      0.0376
     82  N         -5.8470   75.5160   77.7670 N.am  173  ASN173     -0.1974
     83  CA        -6.0240   74.1270   78.1600 C.3   173  ASN173      0.1688
     84  C         -6.3430   73.3480   76.9000 C.2   173  ASN173      0.2292
     85  O         -6.5750   73.9420   75.8380 O.2   173  ASN173     -0.2864
     86  CB        -7.1700   73.9840   79.1780 C.3   173  ASN173      0.1181
     87  CG        -8.3790   74.8270   78.8090 C.2   173  ASN173      0.2629
     88  OD1       -8.9960   74.6100   77.7710 O.2   173  ASN173     -0.2716
     89  ND2       -8.7070   75.8080   79.6480 N.am  173  ASN173     -0.0877
     90  N        -13.1150   68.3030   72.6970 N.3   176  ASP176     -0.1225
     91  CA       -14.3460   68.9360   72.2340 C.3   176  ASP176      0.1805
     92  C        -14.2190   69.0490   70.7130 C.2   176  ASP176      0.2597
     93  O        -13.1120   68.9470   70.1910 O.2   176  ASP176     -0.2718
     94  CB       -14.5430   70.3150   72.8680 C.3   176  ASP176      0.1424
     95  CG       -16.0050   70.7340   72.9080 C.2   176  ASP176      0.3668
     96  OD1      -16.2850   71.9560   72.8730 O.co2 176  ASP176     -0.2456
     97  OD2      -16.9390   69.9100   72.9670 O.co2 176  ASP176     -0.2456
     98  N        -15.3380   69.2040   70.0020 N.am  177  HIS177     -0.1975
     99  CA       -15.3310   69.3200   68.5320 C.3   177  HIS177      0.1656
    100  C        -14.6370   68.1400   67.8680 C.2   177  HIS177      0.2291
    101  O        -13.9390   68.2930   66.8550 O.2   177  HIS177     -0.2864
    102  CB       -14.6370   70.6150   68.0940 C.3   177  HIS177      0.0771
    103  CG       -15.0970   71.8280   68.8360 C.ar  177  HIS177      0.0820
    104  ND1      -16.3910   72.2900   68.7660 N.ar  177  HIS177     -0.2267
    105  CD2      -14.4330   72.6800   69.6520 C.ar  177  HIS177      0.1154
    106  CE1      -16.5070   73.3790   69.5080 C.ar  177  HIS177      0.1986
    107  NE2      -15.3370   73.6300   70.0660 N.ar  177  HIS177     -0.2212
    108  N        -10.7790   78.7530   87.8980 N.3   266  HIS266     -0.1226
    109  CA       -10.6520   78.7510   86.4410 C.3   266  HIS266      0.1752
    110  C        -10.4850   80.1620   85.8830 C.2   266  HIS266      0.2596
    111  O         -9.7400   80.3700   84.9330 O.2   266  HIS266     -0.2718
    112  CB       -11.8210   78.0110   85.7700 C.3   266  HIS266      0.0759
    113  CG       -13.1660   78.6050   86.0520 C.ar  266  HIS266      0.0818
    114  ND1      -13.8520   78.3720   87.2260 N.ar  266  HIS266     -0.2268
    115  CD2      -13.9640   79.4000   85.3000 C.ar  266  HIS266      0.1154
    116  CE1      -15.0120   79.0030   87.1860 C.ar  266  HIS266      0.1986
    117  NE2      -15.1000   79.6430   86.0330 N.ar  266  HIS266     -0.2212
    118  N        -11.1720   81.1280   86.4840 N.am  267  ASN267     -0.1974
    119  CA       -10.9880   82.5150   86.0830 C.3   267  ASN267      0.1688
    120  C         -9.6750   83.1040   86.5650 C.2   267  ASN267      0.2292
    121  O         -9.1010   83.9580   85.8890 O.2   267  ASN267     -0.2864
    122  CB       -12.1790   83.3720   86.4960 C.3   267  ASN267      0.1181
    123  CG       -13.3430   83.2130   85.5440 C.2   267  ASN267      0.2629
    124  OD1      -13.1560   83.1540   84.3240 O.2   267  ASN267     -0.2716
    125  ND2      -14.5480   83.1040   86.0910 N.am  267  ASN267     -0.0877
    126  N         -7.0190   81.3090   86.6370 N.3   269  LEU269     -0.1231
    127  CA        -6.1550   80.7960   85.5800 C.3   269  LEU269      0.1693
    128  C         -6.2220   81.6950   84.3510 C.2   269  LEU269      0.2592
    129  O         -5.1910   82.1570   83.8590 O.2   269  LEU269     -0.2718
    130  CB        -6.5350   79.3610   85.2080 C.3   269  LEU269      0.0284
    131  CG        -6.1620   78.2970   86.2360 C.3   269  LEU269      0.0019
    132  CD1       -6.7880   76.9650   85.8260 C.3   269  LEU269      0.0001
    133  CD2       -4.6450   78.1530   86.3520 C.3   269  LEU269      0.0001
    134  N         -7.4350   81.9690   83.8720 N.am  270  ASN270     -0.1974
    135  CA        -7.5980   82.8660   82.7280 C.3   270  ASN270      0.1688
    136  C         -6.9380   84.2220   82.9700 C.2   270  ASN270      0.2292
    137  O         -6.2610   84.7580   82.0890 O.2   270  ASN270     -0.2864
    138  CB        -9.0770   83.0810   82.4170 C.3   270  ASN270      0.1181
    139  CG        -9.7920   81.8020   82.0000 C.2   270  ASN270      0.2629
    140  OD1       -9.1700   80.8210   81.5750 O.2   270  ASN270     -0.2716
    141  ND2      -11.1200   81.8170   82.1210 N.am  270  ASN270     -0.0877
    142  N        -20.9190   84.8350   80.6800 N.3   301  ARG301     -0.1245
    143  CA       -19.9340   84.0090   81.3890 C.3   301  ARG301      0.1563
    144  C        -19.9860   84.3800   82.8620 C.2   301  ARG301      0.2260
    145  O        -19.5190   85.4550   83.2560 O.2   301  ARG301     -0.2867
    146  CB       -18.5250   84.1880   80.8090 C.3   301  ARG301      0.0307
    147  CG       -18.2600   83.3660   79.5480 C.3   301  ARG301      0.0489
    148  CD       -18.7680   84.0300   78.2960 C.3   301  ARG301      0.2205
    149  NE       -18.4120   83.3880   77.0330 N.pl3 301  ARG301     -0.0865
    150  CZ       -18.9500   83.7490   75.8740 C.cat 301  ARG301      0.5346
    151  NH1      -19.8330   84.7350   75.8370 N.pl3 301  ARG301      0.1354
    152  NH2      -18.6050   83.1530   74.7480 N.pl3 301  ARG301      0.1354
    153  N        -24.6400   81.3900   82.4070 N.3   320  ASP320     -0.1225
    154  CA       -23.3090   80.9020   82.1000 C.3   320  ASP320      0.1805
    155  C        -23.2600   80.0990   80.8260 C.2   320  ASP320      0.2598
    156  O        -24.1040   79.2400   80.5790 O.2   320  ASP320     -0.2718
    157  CB       -22.6830   80.1010   83.2350 C.3   320  ASP320      0.1424
    158  CG       -21.2080   79.8760   83.0010 C.2   320  ASP320      0.3668
    159  OD1      -20.8080   78.7290   82.6870 O.co2 320  ASP320     -0.2456
    160  OD2      -20.3810   80.8140   83.0460 O.co2 320  ASP320     -0.2456
    161  N        -22.2130   80.3690   80.0570 N.am  321  TYR321     -0.1962
    162  CA       -22.0260   79.8210   78.7200 C.3   321  TYR321      0.1771
    163  C        -21.4730   78.3970   78.7090 C.2   321  TYR321      0.2620
    164  O        -21.4670   77.7580   77.6640 O.2   321  TYR321     -0.2715
    165  CB       -21.0710   80.7460   77.9600 C.3   321  TYR321      0.0574
    166  CG       -21.0870   80.5940   76.4570 C.ar  321  TYR321     -0.0198
    167  CD1      -20.0650   79.9020   75.7960 C.ar  321  TYR321     -0.0009
    168  CD2      -22.1130   81.1470   75.6930 C.ar  321  TYR321     -0.0009
    169  CE1      -20.0700   79.7720   74.4050 C.ar  321  TYR321      0.0417
    170  CE2      -22.1260   81.0210   74.3090 C.ar  321  TYR321      0.0417
    171  CZ       -21.1010   80.3400   73.6740 C.ar  321  TYR321      0.1957
    172  OH       -21.1240   80.2180   72.3040 O.3   321  TYR321     -0.2866
    173  N        -21.0110   77.9140   79.8620 N.am  322  GLY322     -0.1940
    174  CA       -20.4170   76.5860   79.9590 C.3   322  GLY322      0.2014
    175  C        -21.2550   75.5340   79.2610 C.2   322  GLY322      0.2638
    176  O        -22.4440   75.3800   79.5490 O.2   322  GLY322     -0.2714
    177  N        -20.6240   74.8020   78.3460 N.am  323  HIS323     -0.1973
    178  CA       -21.3460   73.8780   77.4760 C.3   323  HIS323      0.1656
    179  C        -20.6130   72.5550   77.3280 C.2   323  HIS323      0.2291
    180  O        -21.0960   71.6420   76.6670 O.2   323  HIS323     -0.2864
    181  CB       -21.5950   74.5240   76.1050 C.3   323  HIS323      0.0771
    182  CG       -20.3630   75.0710   75.4560 C.ar  323  HIS323      0.0820
    183  ND1      -19.8930   76.3440   75.7070 N.ar  323  HIS323     -0.2267
    184  CD2      -19.5190   74.5290   74.5480 C.ar  323  HIS323      0.1154
    185  CE1      -18.8050   76.5570   74.9870 C.ar  323  HIS323      0.1986
    186  NE2      -18.5600   75.4750   74.2710 N.ar  323  HIS323     -0.2212
    187  N        -16.6020   69.9830   81.7070 N.3   326  THR326     -0.1203
    188  CA       -15.5950   70.6440   82.5350 C.3   326  THR326      0.1994
    189  C        -16.0370   72.0490   82.9070 C.2   326  THR326      0.2617
    190  O        -15.8500   72.4970   84.0360 O.2   326  THR326     -0.2717
    191  CB       -14.2870   70.7150   81.7720 C.3   326  THR326      0.1784
    192  OG1      -13.7570   69.3950   81.6520 O.3   326  THR326     -0.2211
    193  CG2      -13.2170   71.4760   82.5710 C.3   326  THR326      0.0376
    194  N        -16.6150   72.7390   81.9370 N.am  327  GLU327     -0.1979
    195  CA       -17.0590   74.1170   82.1310 C.3   327  GLU327      0.1602
    196  C        -18.2310   74.1920   83.0970 C.2   327  GLU327      0.2287
    197  O        -18.2680   75.0440   83.9900 O.2   327  GLU327     -0.2864
    198  CB       -17.4500   74.7010   80.7810 C.3   327  GLU327      0.0415
    199  CG       -16.2890   74.6590   79.8030 C.3   327  GLU327      0.1163
    200  CD       -16.6750   75.0230   78.3920 C.2   327  GLU327      0.3649
    201  OE1      -17.8440   75.3660   78.1540 O.co2 327  GLU327     -0.2457
    202  OE2      -15.7890   74.9530   77.5160 O.co2 327  GLU327     -0.2457
    203  N        -16.7690   73.5290   86.6940 N.3   330  VAL330     -0.1231
    204  CA       -16.0780   74.6320   87.3720 C.3   330  VAL330      0.1692
    205  C        -17.0410   75.7540   87.7240 C.2   330  VAL330      0.2592
    206  O        -16.8320   76.4720   88.7060 O.2   330  VAL330     -0.2718
    207  CB       -14.8560   75.1810   86.5750 C.3   330  VAL330      0.0266
    208  CG1      -13.8160   74.0890   86.3590 C.3   330  VAL330      0.0020
    209  CG2      -15.2730   75.7990   85.2400 C.3   330  VAL330      0.0020
    210  N        -18.0940   75.8960   86.9210 N.am  331  THR331     -0.1953
    211  CA       -19.1000   76.9260   87.1640 C.3   331  THR331      0.1897
    212  C        -19.9500   76.5810   88.3850 C.2   331  THR331      0.2313
    213  O        -20.1650   77.4260   89.2490 O.2   331  THR331     -0.2863
    214  CB       -19.9450   77.1290   85.9120 C.3   331  THR331      0.1794
    215  OG1      -19.1280   77.7680   84.9290 O.3   331  THR331     -0.2208
    216  CG2      -21.0860   78.1270   86.1660 C.3   331  THR331      0.0378
@<TRIPOS>BOND
     1    61    60    2
     2    65    63   ar
     3    69    68    2
     4    68    67    1
     5    62    63    1
     6    62    59    1
     7    63    64   ar
     8    60    59    1
     9    60    66   am
    10   101   100    2
    11    67    66    1
    12    67    70    1
    13    58    59    1
    14    52    51    2
    15   100    99    1
    16   102    99    1
    17   102   103    1
    18    70    71    1
    19    99    98    1
    20   104   103   ar
    21   104   106   ar
    22   103   105   ar
    23    51    50    1
    24    71    72    1
    25   106   107   ar
    26   105   107   ar
    27    49    50    1
    28    74    72   ar
    29    72    73   ar
    30    98    92   am
    31    50    53    1
    32    93    92    2
    33    46    45    1
    34    46    47    1
    35    53    54    1
    36    54    55    1
    37    92    91    1
    38    47    48    2
    39    55    57   ar
    40    55    56   ar
    41    29    28    1
    42    29    30    1
    43    28    27    1
    44    91    90    1
    45    91    94    1
    46   172   171    1
    47    94    95    1
    48    96    95   ar
    49    95    97   ar
    50    27    26    1
    51   171   170   ar
    52   171   169   ar
    53    36    35    1
    54    26    23    1
    55   186   184   ar
    56   186   185   ar
    57   170   168   ar
    58   169   167   ar
    59   184   182   ar
    60   152   150    1
    61     1     2    1
    62     2     5    1
    63     2     3    1
    64     6     5    1
    65     4     3    2
    66   185   183   ar
    67    37    35    1
    68    35    32    1
    69     7     5    1
    70    32    31    1
    71    32    33    1
    72    31    24   am
    73    24    23    1
    74    24    25    2
    75    23    22    1
    76   182   183   ar
    77   182   181    1
    78     3     8   am
    79   168   166   ar
    80   167   166   ar
    81   151   150    1
    82    85    84    2
    83   150   149    2
    84   181   178    1
    85    22    20   am
    86    34    33    2
    87   166   165    1
    88    33    38   am
    89   180   179    2
    90     8     9    1
    91    75    76    1
    92    84    83    1
    93   149   148    1
    94    80    79    1
    95   179   178    1
    96   178   177    1
    97   202   200   ar
    98     9    10    1
    99     9    12    1
   100    20    21    2
   101    20    19    1
   102    38    39    1
   103   164   163    2
   104    81    79    1
   105    82    83    1
   106    82    77   am
   107    88    87    2
   108    10    11    2
   109    10    18   am
   110   165   162    1
   111    76    79    1
   112    76    77    1
   113    18    19    1
   114    14    16   ar
   115    14    13   ar
   116   201   200   ar
   117    83    86    1
   118    16    17   ar
   119   148   147    1
   120   177   175   am
   121   200   199    1
   122    77    78    2
   123   163   162    1
   124   163   173   am
   125   162   161    1
   126    13    12    1
   127    13    15   ar
   128    87    86    1
   129    87    89   am
   130    17    15   ar
   131    39    40    1
   132    39    42    1
   133    40    41    2
   134   175   176    2
   135   175   174    1
   136   147   146    1
   137   199   198    1
   138   173   174    1
   139    42    43    1
   140    42    44    1
   141   161   155   am
   142   156   155    2
   143   142   143    1
   144   198   195    1
   145   146   143    1
   146   155   154    1
   147   143   144    1
   148   140   139    2
   149   192   191    1
   150   187   188    1
   151   191   188    1
   152   191   193    1
   153   194   195    1
   154   194   189   am
   155   139   141   am
   156   139   138    1
   157   137   136    2
   158   154   153    1
   159   154   157    1
   160   195   196    1
   161   138   135    1
   162   188   189    1
   163   159   158   ar
   164   135   136    1
   165   135   134    1
   166   144   145    2
   167   189   190    2
   168   158   160   ar
   169   158   157    1
   170   196   197    2
   171   129   128    2
   172   134   128   am
   173   124   123    2
   174   128   127    1
   175   215   214    1
   176   111   110    2
   177   130   127    1
   178   130   131    1
   179   209   207    1
   180   115   117   ar
   181   115   113   ar
   182   123   125   am
   183   123   122    1
   184   127   126    1
   185   112   113    1
   186   112   109    1
   187   132   131    1
   188   110   109    1
   189   110   118   am
   190   121   120    2
   191   214   216    1
   192   214   211    1
   193   117   116   ar
   194   113   114   ar
   195   119   118    1
   196   119   122    1
   197   119   120    1
   198   131   133    1
   199   208   207    1
   200   109   108    1
   201   207   204    1
   202   203   204    1
   203   210   211    1
   204   210   205   am
   205   211   212    1
   206   116   114   ar
   207   204   205    1
   208   205   206    2
   209   212   213    2
