@<TRIPOS>MOLECULE
tmp/1p3eA00.pdb
 78 75 0 0 0
SMALL
GASTEIGER

@<TRIPOS>ATOM
      1  N          8.5100   -0.5690   18.4860 N.3     1  VAL1       -0.1245
      2  CA         7.3270   -1.2340   19.0710 C.3     1  VAL1        0.1561
      3  C          6.8260   -2.3800   18.1900 C.2     1  VAL1        0.2260
      4  O          7.0080   -2.3470   16.9600 O.2     1  VAL1       -0.2867
      5  CB         6.1530   -0.2100   19.3320 C.3     1  VAL1        0.0252
      6  CG1        5.4120    0.1740   18.0770 C.3     1  VAL1        0.0019
      7  CG2        5.1850   -0.7120   20.4030 C.3     1  VAL1        0.0019
      8  N         21.8470    6.9160   21.0510 N.3    47  HIS47      -0.1241
      9  CA        21.3740    6.5600   22.3920 C.3    47  HIS47       0.1621
     10  C         21.9840    5.2550   22.9020 C.2    47  HIS47       0.2264
     11  O         21.9680    4.9960   24.0970 O.2    47  HIS47      -0.2867
     12  CB        19.8180    6.6050   22.4510 C.3    47  HIS47       0.0745
     13  CG        19.1020    5.4380   21.8290 C.ar   47  HIS47       0.0817
     14  ND1       19.0560    4.1890   22.4170 N.ar   47  HIS47      -0.2268
     15  CD2       18.2800    5.3720   20.7520 C.ar   47  HIS47       0.1154
     16  CE1       18.2940    3.3900   21.6970 C.ar   47  HIS47       0.1986
     17  NE2       17.8060    4.0840   20.6790 N.ar   47  HIS47      -0.2212
     18  N          9.5100   -3.6390   15.7930 N.3   166  THR166     -0.1203
     19  CA        10.8280   -3.5580   16.4260 C.3   166  THR166      0.1994
     20  C         10.6390   -3.6780   17.9160 C.2   166  THR166      0.2618
     21  O          9.5530   -3.4450   18.4310 O.2   166  THR166     -0.2717
     22  CB        11.5150   -2.2210   16.1850 C.3   166  THR166      0.1784
     23  OG1       10.6620   -1.1800   16.6650 O.3   166  THR166     -0.2211
     24  CG2       11.7260   -1.9410   14.7210 C.3   166  THR166      0.0376
     25  N         11.7160   -4.0690   18.5880 N.am  167  PHE167     -0.1961
     26  CA        11.7540   -4.1850   20.0380 C.3   167  PHE167      0.1771
     27  C         13.1230   -3.7150   20.5060 C.2   167  PHE167      0.2620
     28  O         14.0570   -3.6140   19.7020 O.2   167  PHE167     -0.2715
     29  CB        11.5900   -5.6330   20.4570 C.3   167  PHE167      0.0574
     30  CG        11.1540   -5.8080   21.9180 C.ar  167  PHE167     -0.0200
     31  CD1       12.0890   -6.0940   22.8890 C.ar  167  PHE167     -0.0042
     32  CD2        9.8160   -5.7190   22.2780 C.ar  167  PHE167     -0.0042
     33  CE1       11.7160   -6.2620   24.2470 C.ar  167  PHE167     -0.0003
     34  CE2        9.4200   -5.9070   23.6110 C.ar  167  PHE167     -0.0003
     35  CZ        10.3910   -6.1800   24.5970 C.ar  167  PHE167     -0.0000
     36  N         13.2120   -3.3770   21.7830 N.am  168  SER168     -0.1950
     37  CA        14.4810   -3.0520   22.4350 C.3   168  SER168      0.1924
     38  C         15.5590   -4.0380   21.9740 C.2   168  SER168      0.2314
     39  O         15.3350   -5.2410   21.9680 O.2   168  SER168     -0.2863
     40  CB        14.2830   -3.1400   23.9570 C.3   168  SER168      0.2116
     41  OG        15.5070   -2.9490   24.6310 O.3   168  SER168     -0.2180
     42  N         17.3840   -0.9690   18.2900 N.3   171  SER171     -0.1217
     43  CA        18.0330    0.3370   18.2290 C.3   171  SER171      0.1889
     44  C         19.3240    0.2750   17.3980 C.2   171  SER171      0.2288
     45  O         20.2320   -0.4980   17.7200 O.2   171  SER171     -0.2866
     46  CB        18.3960    0.7770   19.6590 C.3   171  SER171      0.2089
     47  OG        17.2200    1.1540   20.3700 O.3   171  SER171     -0.2183
     48  N         16.9130    2.9880   12.2990 N.3   186  HIS186     -0.1226
     49  CA        15.8210    2.9020   13.2730 C.3   186  HIS186      0.1752
     50  C         16.2590    3.4050   14.6480 C.2   186  HIS186      0.2596
     51  O         17.3380    3.0400   15.1040 O.2   186  HIS186     -0.2718
     52  CB        15.3660    1.4560   13.4320 C.3   186  HIS186      0.0759
     53  CG        14.3680    1.2880   14.5260 C.ar  186  HIS186      0.0818
     54  ND1       13.0980    1.8120   14.4480 N.ar  186  HIS186     -0.2268
     55  CD2       14.4750    0.7320   15.7510 C.ar  186  HIS186      0.1154
     56  CE1       12.4470    1.5410   15.5700 C.ar  186  HIS186      0.1986
     57  NE2       13.2730    0.9070   16.3930 N.ar  186  HIS186     -0.2212
     58  N         15.4280    4.2090   15.3190 N.am  187  ASN187     -0.1960
     59  CA        15.7140    4.5750   16.7090 C.3   187  ASN187      0.1819
     60  C         14.6180    4.4000   17.7620 C.2   187  ASN187      0.2621
     61  O         14.9580    4.1750   18.9050 O.2   187  ASN187     -0.2715
     62  CB        16.3410    5.9790   16.7830 C.3   187  ASN187      0.1195
     63  CG        15.3090    7.1270   16.9140 C.2   187  ASN187      0.2630
     64  OD1       14.3220    7.1770   16.2100 O.2   187  ASN187     -0.2716
     65  ND2       15.6230    8.1050   17.7680 N.am  187  ASN187     -0.0877
     66  N         13.3320    4.4990   17.4160 N.am  188  ALA188     -0.1963
     67  CA        12.2930    4.5320   18.4630 C.3   188  ALA188      0.1728
     68  C         10.8760    4.3050   17.9870 C.2   188  ALA188      0.2616
     69  O         10.5980    4.2960   16.7980 O.2   188  ALA188     -0.2715
     70  CB        12.3380    5.8660   19.1660 C.3   188  ALA188      0.0334
     71  N          9.9840    4.1720   18.9710 N.am  189  GLY189     -0.1955
     72  CA         8.5490    4.2410   18.7610 C.3   189  GLY189      0.1869
     73  C          8.0750    5.6900   18.8580 C.2   189  GLY189      0.2309
     74  O          8.6260    6.4930   19.6040 O.2   189  GLY189     -0.2863
     75  N          3.3020    4.8150   20.4990 N.3   193  GLY193     -0.1225
     76  CA         3.4850    3.4140   20.1670 C.3   193  GLY193      0.1811
     77  C          2.6630    2.8990   19.0220 C.2   193  GLY193      0.2280
     78  O          2.3780    1.7180   18.9640 O.2   193  GLY193     -0.2866
@<TRIPOS>BOND
     1    48    49    1
     2    49    52    1
     3    49    50    1
     4    52    53    1
     5    54    53   ar
     6    54    56   ar
     7    53    55   ar
     8    50    51    2
     9    50    58   am
    10    24    22    1
    11    58    59    1
    12    56    57   ar
    13    55    57   ar
    14    18    19    1
    15    22    19    1
    16    22    23    1
    17    64    63    2
    18    19    20    1
    19    59    62    1
    20    59    60    1
    21    62    63    1
    22    69    68    2
    23    63    65   am
    24     4     3    2
    25    44    45    2
    26    44    43    1
    27    66    60   am
    28    66    67    1
    29    60    61    2
    30    20    21    2
    31    20    25   am
    32    68    67    1
    33    68    71   am
    34     6     5    1
    35     3     2    1
    36    43    42    1
    37    43    46    1
    38    67    70    1
    39     1     2    1
    40    25    26    1
    41    72    73    1
    42    72    71    1
    43    73    74    2
    44    78    77    2
    45    77    76    1
    46     2     5    1
    47     5     7    1
    48    46    47    1
    49    28    27    2
    50    26    29    1
    51    26    27    1
    52    76    75    1
    53    29    30    1
    54    27    36   am
    55    17    15   ar
    56    17    16   ar
    57    15    13   ar
    58     8     9    1
    59    16    14   ar
    60    36    37    1
    61    13    14   ar
    62    13    12    1
    63    30    32   ar
    64    30    31   ar
    65    39    38    2
    66    38    37    1
    67    32    34   ar
    68     9    12    1
    69     9    10    1
    70    37    40    1
    71    31    33   ar
    72    10    11    2
    73    34    35   ar
    74    40    41    1
    75    33    35   ar
