@<TRIPOS>MOLECULE
tmp/1p3hF00.pdb
 85 81 0 0 0
SMALL
GASTEIGER

@<TRIPOS>ATOM
      1  N        -30.9490   34.9400   57.8330 N.3     2  LYS2       -0.1231
      2  CA       -30.5460   36.1000   57.0470 C.3     2  LYS2        0.1693
      3  C        -31.1140   35.9620   55.6170 C.2     2  LYS2        0.2592
      4  O        -30.6820   35.1110   54.8070 O.2     2  LYS2       -0.2718
      5  CB       -29.0020   36.2340   57.0380 C.3     2  LYS2        0.0285
      6  CG       -28.4770   37.3940   56.2150 C.3     2  LYS2        0.0035
      7  CD       -27.1060   37.8350   56.7110 C.3     2  LYS2        0.0206
      8  CE       -26.2630   38.3970   55.5810 C.3     2  LYS2        0.1093
      9  NZ       -27.1070   39.1140   54.5990 N.3     2  LYS2       -0.1314
     10  N        -32.1090   36.8020   55.3360 N.am    3  VAL3       -0.1966
     11  CA       -32.7880   36.8180   54.0510 C.3     3  VAL3        0.1727
     12  C        -31.9090   37.4150   52.9760 C.2     3  VAL3        0.2616
     13  O        -31.2780   38.4310   53.2150 O.2     3  VAL3       -0.2715
     14  CB       -34.0360   37.6950   54.1190 C.3     3  VAL3        0.0290
     15  CG1      -35.1920   36.9310   54.7410 C.3     3  VAL3        0.0023
     16  CG2      -33.7130   38.9350   54.9520 C.3     3  VAL3        0.0023
     17  N        -31.8720   36.8230   51.7900 N.am    4  ASN4       -0.1958
     18  CA       -31.0640   37.4130   50.7330 C.3     4  ASN4        0.1819
     19  C        -31.9850   38.0410   49.6780 C.2     4  ASN4        0.2621
     20  O        -33.1350   37.5980   49.4530 O.2     4  ASN4       -0.2715
     21  CB       -30.1030   36.3710   50.1080 C.3     4  ASN4        0.1195
     22  CG       -30.8290   35.1730   49.5000 C.2     4  ASN4        0.2630
     23  OD1      -30.2170   34.3670   48.7900 O.2     4  ASN4       -0.2716
     24  ND2      -32.1290   35.0460   49.7800 N.am    4  ASN4       -0.0877
     25  N        -31.4800   39.1000   49.0520 N.am    5  ILE5       -0.1977
     26  CA       -32.2020   39.8570   48.0390 C.3     5  ILE5        0.1596
     27  C        -31.8020   39.4500   46.6380 C.2     5  ILE5        0.2287
     28  O        -30.6040   39.4290   46.3460 O.2     5  ILE5       -0.2864
     29  CB       -31.8940   41.3300   48.1840 C.3     5  ILE5        0.0276
     30  CG1      -32.3120   41.8180   49.5580 C.3     5  ILE5        0.0022
     31  CG2      -32.6140   42.1030   47.1100 C.3     5  ILE5        0.0022
     32  CD1      -31.7900   43.2010   49.8450 C.3     5  ILE5        0.0001
     33  N        -27.6980   44.7580   42.9610 N.3    13  LEU13      -0.1245
     34  CA       -27.6400   45.2390   44.3270 C.3    13  LEU13       0.1561
     35  C        -26.2050   45.6290   44.5690 C.2    13  LEU13       0.2260
     36  O        -25.3040   44.8730   44.2580 O.2    13  LEU13      -0.2867
     37  CB       -28.0590   44.1350   45.2860 C.3    13  LEU13       0.0270
     38  CG       -28.1110   44.5380   46.7470 C.3    13  LEU13       0.0019
     39  CD1      -29.1880   45.5680   46.9670 C.3    13  LEU13       0.0001
     40  CD2      -28.3600   43.3000   47.5620 C.3    13  LEU13       0.0001
     41  N        -22.9440   43.3070   45.0010 N.3    43  VAL43      -0.1231
     42  CA       -23.2760   42.1950   45.8890 C.3    43  VAL43       0.1692
     43  C        -24.1350   41.1240   45.2150 C.2    43  VAL43       0.2591
     44  O        -23.9220   39.9340   45.4270 O.2    43  VAL43      -0.2718
     45  CB       -24.0150   42.7140   47.1090 C.3    43  VAL43       0.0266
     46  CG1      -24.3350   41.5890   48.0550 C.3    43  VAL43       0.0020
     47  CG2      -23.1660   43.7740   47.7700 C.3    43  VAL43       0.0020
     48  N        -25.1040   41.5430   44.4080 N.am   44  ALA44      -0.1980
     49  CA       -25.9720   40.6010   43.7090 C.3    44  ALA44       0.1597
     50  C        -26.3300   41.1890   42.3580 C.2    44  ALA44       0.2287
     51  O        -26.3890   42.4000   42.2090 O.2    44  ALA44      -0.2864
     52  CB       -27.2240   40.3350   44.5140 C.3    44  ALA44       0.0319
     53  N        -29.7350   46.9740   55.4750 N.3    80  TYR80      -0.1241
     54  CA       -29.8440   45.6760   56.1410 C.3    80  TYR80       0.1605
     55  C        -28.6500   45.5430   57.0850 C.2    80  TYR80       0.2264
     56  O        -27.5000   45.5460   56.6510 O.2    80  TYR80      -0.2867
     57  CB       -29.8820   44.5300   55.1230 C.3    80  TYR80       0.0534
     58  CG       -30.1400   43.1780   55.7410 C.ar   80  TYR80      -0.0201
     59  CD1      -31.4020   42.5750   55.6550 C.ar   80  TYR80      -0.0009
     60  CD2      -29.1350   42.5020   56.4330 C.ar   80  TYR80      -0.0009
     61  CE1      -31.6500   41.3220   56.2470 C.ar   80  TYR80       0.0417
     62  CE2      -29.3670   41.2570   57.0280 C.ar   80  TYR80       0.0417
     63  CZ       -30.6220   40.6760   56.9300 C.ar   80  TYR80       0.1957
     64  OH       -30.8220   39.4470   57.5110 O.3    80  TYR80      -0.2866
     65  N        -25.9500   48.4510   57.5580 N.3    83  GLU83      -0.1245
     66  CA       -25.2670   48.7140   56.2850 C.3    83  GLU83       0.1567
     67  C        -26.2210   49.2440   55.2140 C.2    83  GLU83       0.2260
     68  O        -27.3990   48.8760   55.1680 O.2    83  GLU83      -0.2867
     69  CB       -24.5830   47.4380   55.7620 C.3    83  GLU83       0.0388
     70  CG       -23.2080   47.1490   56.3830 C.3    83  GLU83       0.1160
     71  CD       -22.7150   45.7350   56.0870 C.2    83  GLU83       0.3649
     72  OE1      -21.4740   45.5260   55.9900 O.co2  83  GLU83      -0.2457
     73  OE2      -23.5790   44.8370   55.9690 O.co2  83  GLU83      -0.2457
     74  N        -27.3660   49.5610   51.3080 N.3    85  TYR85      -0.1241
     75  CA       -27.3080   48.9520   49.9820 C.3    85  TYR85       0.1605
     76  C        -28.1380   49.7630   49.0050 C.2    85  TYR85       0.2264
     77  O        -28.9680   50.5800   49.4080 O.2    85  TYR85      -0.2867
     78  CB       -27.8450   47.5320   49.9760 C.3    85  TYR85       0.0534
     79  CG       -27.0840   46.5880   50.8480 C.ar   85  TYR85      -0.0201
     80  CD1      -27.3410   46.5190   52.2220 C.ar   85  TYR85      -0.0009
     81  CD2      -26.1230   45.7360   50.3110 C.ar   85  TYR85      -0.0009
     82  CE1      -26.6680   45.6200   53.0390 C.ar   85  TYR85       0.0417
     83  CE2      -25.4370   44.8290   51.1200 C.ar   85  TYR85       0.0417
     84  CZ       -25.7180   44.7760   52.4860 C.ar   85  TYR85       0.1957
     85  OH       -25.0660   43.8710   53.3030 O.3    85  TYR85      -0.2866
@<TRIPOS>BOND
     1    51    50    2
     2    50    49    1
     3    33    34    1
     4    49    48    1
     5    49    52    1
     6    36    35    2
     7    34    35    1
     8    34    37    1
     9    48    43   am
    10    41    42    1
    11    43    44    2
    12    43    42    1
    13    37    38    1
    14    42    45    1
    15    28    27    2
    16    27    26    1
    17    38    39    1
    18    38    40    1
    19    45    47    1
    20    45    46    1
    21    31    29    1
    22    26    29    1
    23    26    25    1
    24    29    30    1
    25    23    22    2
    26    76    77    2
    27    76    75    1
    28    25    19   am
    29    20    19    2
    30    22    24   am
    31    22    21    1
    32    30    32    1
    33    19    18    1
    34    78    75    1
    35    78    79    1
    36    75    74    1
    37    21    18    1
    38    81    79   ar
    39    81    83   ar
    40    18    17    1
    41    79    80   ar
    42    83    84   ar
    43    17    12   am
    44    80    82   ar
    45    84    82   ar
    46    84    85    1
    47    12    13    2
    48    12    11    1
    49    11    14    1
    50    11    10    1
    51    14    15    1
    52    14    16    1
    53     9     8    1
    54     4     3    2
    55    57    58    1
    56    57    54    1
    57    68    67    2
    58    67    66    1
    59    10     3   am
    60    53    54    1
    61     8     7    1
    62     3     2    1
    63    59    58   ar
    64    59    61   ar
    65    58    60   ar
    66    69    66    1
    67    69    70    1
    68    73    71   ar
    69    72    71   ar
    70    71    70    1
    71    54    55    1
    72     6     7    1
    73     6     5    1
    74    61    63   ar
    75    66    65    1
    76    60    62   ar
    77    56    55    2
    78    63    62   ar
    79    63    64    1
    80     5     2    1
    81     2     1    1
