@<TRIPOS>MOLECULE
tmp/1p3uA00.pdb
 182 176 0 0 0
SMALL
GASTEIGER

@<TRIPOS>ATOM
      1  N         27.6430   13.2720   13.8080 N.3     5  ALA5       -0.1245
      2  CA        26.2710   13.0120   14.2300 C.3     5  ALA5        0.1562
      3  C         25.6360   11.8390   13.4830 C.2     5  ALA5        0.2260
      4  O         24.8890   11.0520   14.0690 O.2     5  ALA5       -0.2867
      5  CB        25.4250   14.2700   14.0420 C.3     5  ALA5        0.0290
      6  N         24.3600    8.1640   14.9400 N.3     9  LYS9       -0.1245
      7  CA        23.0570    7.5990   14.6230 C.3     9  LYS9        0.1561
      8  C         23.1930    6.2130   13.9990 C.2     9  LYS9        0.2260
      9  O         22.5870    5.2510   14.4670 O.2     9  LYS9       -0.2867
     10  CB        22.3070    8.5310   13.6690 C.3     9  LYS9        0.0271
     11  CG        20.9540    8.0120   13.2120 C.3     9  LYS9        0.0035
     12  CD        20.2170    9.0820   12.4170 C.3     9  LYS9        0.0206
     13  CE        18.9570    8.5380   11.7580 C.3     9  LYS9        0.1093
     14  NZ        18.0670    7.8460   12.7280 N.3     9  LYS9       -0.1314
     15  N         18.8440    1.7240   19.6700 N.3    16  HIS16      -0.1241
     16  CA        17.7730    2.6820   19.8970 C.3    16  HIS16       0.1621
     17  C         16.4350    2.0000   19.6620 C.2    16  HIS16       0.2264
     18  O         15.5070    2.1390   20.4570 O.2    16  HIS16      -0.2867
     19  CB        17.8710    3.8660   18.9460 C.3    16  HIS16       0.0745
     20  CG        16.6540    4.7360   18.9600 C.ar   16  HIS16       0.0817
     21  ND1       15.5120    4.4350   18.2480 N.ar   16  HIS16      -0.2268
     22  CD2       16.3790    5.8660   19.6510 C.ar   16  HIS16       0.1154
     23  CE1       14.5870    5.3440   18.5010 C.ar   16  HIS16       0.1986
     24  NE2       15.0880    6.2260   19.3510 N.ar   16  HIS16      -0.2212
     25  N         15.3820   -0.0870   22.4090 N.3    19  VAL19      -0.1231
     26  CA        14.8630    0.6910   23.5290 C.3    19  VAL19       0.1692
     27  C         13.4040    1.0480   23.2530 C.2    19  VAL19       0.2592
     28  O         12.5370    0.8650   24.1090 O.2    19  VAL19      -0.2718
     29  CB        15.7000    1.9710   23.7420 C.3    19  VAL19       0.0266
     30  CG1       14.9810    2.9330   24.6940 C.3    19  VAL19       0.0020
     31  CG2       17.0540    1.5860   24.2940 C.3    19  VAL19       0.0020
     32  N         13.1480    1.5320   22.0420 N.am   20  ASP20      -0.1974
     33  CA        11.8040    1.8890   21.5860 C.3    20  ASP20       0.1709
     34  C         10.8880    0.6860   21.8630 C.2    20  ASP20       0.2293
     35  O          9.8760    0.8010   22.5580 O.2    20  ASP20      -0.2864
     36  CB        11.8530    2.1710   20.0730 C.3    20  ASP20       0.1436
     37  CG        10.4890    2.4950   19.4640 C.2    20  ASP20       0.3671
     38  OD1        9.4410    2.0950   20.0210 O.co2  20  ASP20      -0.2456
     39  OD2       10.4780    3.1400   18.3880 O.co2  20  ASP20      -0.2456
     40  N         10.4520   -0.0880   25.6870 N.3    23  VAL23      -0.1231
     41  CA         9.5880    0.8990   26.3330 C.3    23  VAL23       0.1692
     42  C          8.1190    0.6120   25.9990 C.2    23  VAL23       0.2591
     43  O          7.2660    0.5510   26.8820 O.2    23  VAL23      -0.2718
     44  CB         9.9280    2.3300   25.8690 C.3    23  VAL23       0.0266
     45  CG1        8.8190    3.3070   26.2780 C.3    23  VAL23       0.0020
     46  CG2       11.2500    2.7540   26.4820 C.3    23  VAL23       0.0020
     47  N          7.8240    0.4280   24.7250 N.am   24  MET24      -0.1979
     48  CA         6.4430    0.1660   24.3500 C.3    24  MET24       0.1605
     49  C          5.9520   -1.1670   24.9120 C.2    24  MET24       0.2287
     50  O          4.7950   -1.2850   25.3160 O.2    24  MET24      -0.2864
     51  CB         6.2940    0.2150   22.8290 C.3    24  MET24       0.0413
     52  CG         6.5690    1.6100   22.2370 C.3    24  MET24       0.0598
     53  SD         5.6590    2.9460   23.0740 S.3    24  MET24      -0.1393
     54  CE         3.9890    2.6950   22.4350 C.3    24  MET24       0.0692
     55  N         12.5250    7.8510   33.4520 N.3    42  GLN42      -0.1245
     56  CA        12.9930    9.0750   32.8140 C.3    42  GLN42       0.1566
     57  C         13.7730    9.9220   33.8130 C.2    42  GLN42       0.2260
     58  O         14.8140   10.5000   33.4780 O.2    42  GLN42      -0.2867
     59  CB        11.8010    9.8700   32.2640 C.3    42  GLN42       0.0367
     60  CG        11.0760    9.1890   31.0960 C.3    42  GLN42       0.0905
     61  CD        11.8030    9.3660   29.7750 C.2    42  GLN42       0.2608
     62  OE1       11.4480   10.2280   28.9620 O.2    42  GLN42      -0.2717
     63  NE2       12.8300    8.5570   29.5560 N.am   42  GLN42      -0.0878
     64  N         17.3930    8.5490   34.2320 N.3    45  PHE45      -0.1241
     65  CA        18.2360    8.8350   33.0900 C.3    45  PHE45       0.1605
     66  C         18.5850   10.3100   33.0010 C.2    45  PHE45       0.2264
     67  O         19.7450   10.6640   32.7900 O.2    45  PHE45      -0.2867
     68  CB        17.5680    8.4050   31.7850 C.3    45  PHE45       0.0534
     69  CG        18.4640    8.5380   30.5950 C.ar   45  PHE45      -0.0203
     70  CD1       19.5390    7.6760   30.4280 C.ar   45  PHE45      -0.0042
     71  CD2       18.2770    9.5600   29.6790 C.ar   45  PHE45      -0.0042
     72  CE1       20.4200    7.8340   29.3650 C.ar   45  PHE45      -0.0003
     73  CE2       19.1570    9.7280   28.6060 C.ar   45  PHE45      -0.0003
     74  CZ        20.2280    8.8640   28.4540 C.ar   45  PHE45      -0.0000
     75  N         24.4890   12.9690   23.3970 N.3   105  TYR105     -0.1227
     76  CA        23.8260   12.6920   22.1200 C.3   105  TYR105      0.1736
     77  C         22.5650   11.8680   22.3800 C.2   105  TYR105      0.2595
     78  O         21.4960   12.1340   21.8270 O.2   105  TYR105     -0.2718
     79  CB        24.7600   11.9050   21.1980 C.3   105  TYR105      0.0548
     80  CG        24.0280   11.1950   20.0810 C.ar  105  TYR105     -0.0200
     81  CD1       23.4990   11.9080   19.0030 C.ar  105  TYR105     -0.0009
     82  CD2       23.8020    9.8220   20.1410 C.ar  105  TYR105     -0.0009
     83  CE1       22.7540   11.2690   18.0150 C.ar  105  TYR105      0.0417
     84  CE2       23.0610    9.1700   19.1570 C.ar  105  TYR105      0.0417
     85  CZ        22.5380    9.9010   18.1010 C.ar  105  TYR105      0.1957
     86  OH        21.7920    9.2680   17.1370 O.3   105  TYR105     -0.2866
     87  N         22.7070   10.8660   23.2350 N.am  106  CYS106     -0.1970
     88  CA        21.6000    9.9890   23.5730 C.3   106  CYS106      0.1712
     89  C         20.4400   10.7800   24.1870 C.2   106  CYS106      0.2296
     90  O         19.3030   10.6760   23.7320 O.2   106  CYS106     -0.2864
     91  CB        22.0840    8.9110   24.5430 C.3   106  CYS106      0.0983
     92  SG        20.8400    7.6950   24.9860 S.3   106  CYS106     -0.0798
     93  N         19.0110   13.5420   21.6800 N.3   109  GLY109     -0.1210
     94  CA        18.3110   12.9300   20.5700 C.3   109  GLY109      0.1956
     95  C         16.9440   12.4570   21.0370 C.2   109  GLY109      0.2612
     96  O         15.9680   12.5100   20.2870 O.2   109  GLY109     -0.2717
     97  N         16.8660   11.9930   22.2820 N.am  110  SER110     -0.1952
     98  CA        15.5940   11.5140   22.8200 C.3   110  SER110      0.1924
     99  C         14.5770   12.6450   22.8460 C.2   110  SER110      0.2314
    100  O         13.3690   12.4100   22.8100 O.2   110  SER110     -0.2863
    101  CB        15.7700   10.9450   24.2360 C.3   110  SER110      0.2116
    102  OG        15.9260   11.9650   25.2050 O.3   110  SER110     -0.2180
    103  N         14.4510   15.0060   20.5170 N.3   112  LEU112     -0.1231
    104  CA        14.0070   15.1280   19.1360 C.3   112  LEU112      0.1693
    105  C         12.9200   14.0950   18.8340 C.2   112  LEU112      0.2593
    106  O         11.8770   14.4210   18.2620 O.2   112  LEU112     -0.2718
    107  CB        15.1790   14.9020   18.1750 C.3   112  LEU112      0.0284
    108  CG        14.7860   14.6820   16.7080 C.3   112  LEU112      0.0019
    109  CD1       14.3530   16.0040   16.0810 C.3   112  LEU112      0.0001
    110  CD2       15.9500   14.0850   15.9470 C.3   112  LEU112      0.0001
    111  N         13.1680   12.8490   19.2280 N.am  113  GLY113     -0.1942
    112  CA        12.2160   11.7840   18.9520 C.3   113  GLY113      0.2014
    113  C         11.0750   11.5900   19.9330 C.2   113  GLY113      0.2638
    114  O         10.2930   10.6500   19.7890 O.2   113  GLY113     -0.2714
    115  N         10.9570   12.4780   20.9140 N.am  114  ALA114     -0.1977
    116  CA         9.9070   12.3670   21.9190 C.3   114  ALA114      0.1597
    117  C          8.4980   12.6690   21.4090 C.2   114  ALA114      0.2287
    118  O          7.5360   12.5780   22.1650 O.2   114  ALA114     -0.2864
    119  CB        10.2330   13.2760   23.1050 C.3   114  ALA114      0.0319
    120  N          6.4950   10.9700   19.4750 N.3   116  PHE116     -0.1227
    121  CA         5.6120    9.8110   19.5980 C.3   116  PHE116      0.1736
    122  C          5.1050    9.6530   21.0270 C.2   116  PHE116      0.2595
    123  O          3.9030    9.5350   21.2640 O.2   116  PHE116     -0.2718
    124  CB         6.3450    8.5390   19.1660 C.3   116  PHE116      0.0547
    125  CG         5.4900    7.3000   19.2130 C.ar  116  PHE116     -0.0202
    126  CD1        4.6440    6.9800   18.1540 C.ar  116  PHE116     -0.0042
    127  CD2        5.5280    6.4560   20.3200 C.ar  116  PHE116     -0.0042
    128  CE1        3.8470    5.8310   18.1960 C.ar  116  PHE116     -0.0003
    129  CE2        4.7350    5.3040   20.3720 C.ar  116  PHE116     -0.0003
    130  CZ         3.8930    4.9930   19.3040 C.ar  116  PHE116     -0.0000
    131  N          6.0230    9.6420   21.9870 N.am  117  LEU117     -0.1980
    132  CA         5.6350    9.5080   23.3860 C.3   117  LEU117      0.1596
    133  C          4.6960   10.6340   23.8230 C.2   117  LEU117      0.2287
    134  O          3.7460   10.4050   24.5680 O.2   117  LEU117     -0.2864
    135  CB         6.8750    9.5120   24.2810 C.3   117  LEU117      0.0297
    136  CG         7.7850    8.2950   24.1340 C.3   117  LEU117      0.0022
    137  CD1        9.0670    8.5060   24.9460 C.3   117  LEU117      0.0001
    138  CD2        7.0420    7.0600   24.6160 C.3   117  LEU117      0.0001
    139  N         17.0410   20.6560   17.1740 N.3   146  TRP146     -0.1241
    140  CA        17.9710   19.5470   16.9870 C.3   146  TRP146      0.1605
    141  C         19.0560   19.8510   15.9520 C.2   146  TRP146      0.2264
    142  O         20.2400   19.6000   16.1920 O.2   146  TRP146     -0.2867
    143  CB        17.1850   18.2910   16.5920 C.3   146  TRP146      0.0550
    144  CG        18.0210   17.1120   16.2070 C.ar  146  TRP146      0.0003
    145  CD1       18.1020   16.5410   14.9710 C.ar  146  TRP146      0.0946
    146  CD2       18.8550   16.3240   17.0680 C.ar  146  TRP146      0.0152
    147  NE1       18.9260   15.4430   15.0070 N.ar  146  TRP146     -0.2442
    148  CE2       19.4030   15.2850   16.2820 C.ar  146  TRP146      0.0810
    149  CE3       19.1910   16.3930   18.4300 C.ar  146  TRP146      0.0012
    150  CZ2       20.2680   14.3180   16.8090 C.ar  146  TRP146      0.0191
    151  CZ3       20.0530   15.4320   18.9550 C.ar  146  TRP146      0.0001
    152  CH2       20.5800   14.4070   18.1430 C.ar  146  TRP146      0.0015
    153  N         22.4240    4.1010   26.1850 N.3   174  PHE174     -0.1241
    154  CA        21.2250    3.3420   25.8310 C.3   174  PHE174      0.1605
    155  C         21.1620    2.0840   26.6890 C.2   174  PHE174      0.2264
    156  O         20.0880    1.6800   27.1410 O.2   174  PHE174     -0.2867
    157  CB        21.2490    2.9360   24.3480 C.3   174  PHE174      0.0534
    158  CG        20.7810    4.0120   23.4030 C.ar  174  PHE174     -0.0203
    159  CD1       21.6510    4.5400   22.4450 C.ar  174  PHE174     -0.0042
    160  CD2       19.4680    4.4610   23.4300 C.ar  174  PHE174     -0.0042
    161  CE1       21.2110    5.4960   21.5290 C.ar  174  PHE174     -0.0003
    162  CE2       19.0160    5.4160   22.5210 C.ar  174  PHE174     -0.0003
    163  CZ        19.8940    5.9360   21.5630 C.ar  174  PHE174     -0.0000
    164  N         19.9420    2.9020   30.0670 N.3   177  TYR177     -0.1241
    165  CA        18.5120    3.1740   30.0280 C.3   177  TYR177      0.1605
    166  C         17.7280    1.8720   30.1990 C.2   177  TYR177      0.2264
    167  O         16.8150    1.7930   31.0230 O.2   177  TYR177     -0.2867
    168  CB        18.1150    3.8370   28.7020 C.3   177  TYR177      0.0534
    169  CG        16.7070    4.4060   28.7250 C.ar  177  TYR177     -0.0201
    170  CD1       16.4560    5.6680   29.2410 C.ar  177  TYR177     -0.0009
    171  CD2       15.6230    3.6650   28.2470 C.ar  177  TYR177     -0.0009
    172  CE1       15.1620    6.1910   29.2800 C.ar  177  TYR177      0.0417
    173  CE2       14.3340    4.1740   28.2860 C.ar  177  TYR177      0.0417
    174  CZ        14.1090    5.4340   28.8000 C.ar  177  TYR177      0.1957
    175  OH        12.8320    5.9310   28.8250 O.3   177  TYR177     -0.2866
    176  N          9.7530   -1.2730   15.5090 N.3   199  PRO199     -0.2116
    177  CA         9.4580    0.0410   16.0880 C.3   199  PRO199      0.1372
    178  C          8.2250    0.6880   15.4630 C.2   199  PRO199      0.2244
    179  O          7.4560    1.3330   16.2060 O.2   199  PRO199     -0.2868
    180  CB        10.7330    0.8370   15.8130 C.3   199  PRO199      0.0268
    181  CG        11.7970   -0.2250   15.7240 C.3   199  PRO199      0.0207
    182  CD        11.1050   -1.2950   14.9280 C.3   199  PRO199      0.0892
@<TRIPOS>BOND
     1    13    12    1
     2    13    14    1
     3    12    11    1
     4    11    10    1
     5     3     4    2
     6     3     2    1
     7    10     7    1
     8     1     2    1
     9     8     9    2
    10     8     7    1
    11     5     2    1
    12     7     6    1
    13   182   176    1
    14   182   181    1
    15   145   147   ar
    16   145   144   ar
    17   147   148   ar
    18   178   177    1
    19   178   179    2
    20   176   177    1
    21   181   180    1
    22   180   177    1
    23   110   108    1
    24   141   142    2
    25   141   140    1
    26   109   108    1
    27   144   143    1
    28   144   146   ar
    29   148   150   ar
    30   148   146   ar
    31   143   140    1
    32   108   107    1
    33   150   152   ar
    34   140   139    1
    35   146   149   ar
    36    86    85    1
    37    83    85   ar
    38    83    81   ar
    39    85    84   ar
    40   152   151   ar
    41   126   128   ar
    42   126   125   ar
    43   107   104    1
    44   128   130   ar
    45    21    23   ar
    46    21    20   ar
    47   106   105    2
    48    39    37   ar
    49   149   151   ar
    50    23    24   ar
    51   105   104    1
    52   105   111   am
    53    19    20    1
    54    19    16    1
    55   112   111    1
    56   112   113    1
    57    20    22   ar
    58    81    80   ar
    59   104   103    1
    60    84    82   ar
    61   124   125    1
    62   124   121    1
    63   125   127   ar
    64   130   129   ar
    65    24    22   ar
    66    37    38   ar
    67    37    36    1
    68   120   121    1
    69   121   122    1
    70    17    16    1
    71    17    18    2
    72    15    16    1
    73   114   113    2
    74   113   115   am
    75    36    33    1
    76    80    82   ar
    77    80    79    1
    78    96    95    2
    79   127   129   ar
    80    94    95    1
    81    94    93    1
    82   115   116    1
    83   122   123    2
    84   122   131   am
    85    95    97   am
    86    79    76    1
    87   117   116    1
    88   117   118    2
    89   161   163   ar
    90   161   159   ar
    91   163   162   ar
    92    33    34    1
    93    33    32    1
    94    78    77    2
    95    34    35    2
    96   116   119    1
    97   131   132    1
    98    32    27   am
    99    76    77    1
   100    76    75    1
   101    52    51    1
   102    52    53    1
   103    97    98    1
   104    77    87   am
   105    25    26    1
   106    54    53    1
   107   159   158   ar
   108   162   160   ar
   109   100    99    2
   110    98    99    1
   111    98   101    1
   112    51    48    1
   113    87    88    1
   114    27    26    1
   115    27    28    2
   116   132   133    1
   117   132   135    1
   118   158   160   ar
   119   158   157    1
   120    26    29    1
   121    88    89    1
   122    88    91    1
   123    90    89    2
   124    29    31    1
   125    29    30    1
   126   133   134    2
   127   136   135    1
   128   136   138    1
   129   136   137    1
   130   101   102    1
   131   157   154    1
   132    48    47    1
   133    48    49    1
   134    91    92    1
   135    47    42   am
   136    49    50    2
   137    40    41    1
   138   154   153    1
   139   154   155    1
   140    44    45    1
   141    44    41    1
   142    44    46    1
   143    42    41    1
   144    42    43    2
   145   155   156    2
   146   171   173   ar
   147   171   169   ar
   148   173   174   ar
   149    74    73   ar
   150    74    72   ar
   151    73    71   ar
   152   168   169    1
   153   168   165    1
   154   169   170   ar
   155   174   175    1
   156   174   172   ar
   157    62    61    2
   158   170   172   ar
   159    72    70   ar
   160    63    61   am
   161    71    69   ar
   162    61    60    1
   163   165   164    1
   164   165   166    1
   165   166   167    2
   166    70    69   ar
   167    69    68    1
   168    60    59    1
   169    68    65    1
   170    59    56    1
   171    67    66    2
   172    56    55    1
   173    56    57    1
   174    66    65    1
   175    65    64    1
   176    58    57    2
