@<TRIPOS>MOLECULE
tmp/1p44D01.pdb
 177 170 0 0 0
SMALL
GASTEIGER

@<TRIPOS>ATOM
      1  N         28.8820   24.5080   62.5800 N.3    95  GLY95      -0.1210
      2  CA        29.2120   23.8480   61.3280 C.3    95  GLY95       0.1956
      3  C         28.8270   24.6740   60.1090 C.2    95  GLY95       0.2612
      4  O         28.0230   25.6040   60.1970 O.2    95  GLY95      -0.2717
      5  N         29.4010   24.3460   58.9570 N.am   96  PHE96      -0.1962
      6  CA        29.0900   25.0780   57.7380 C.3    96  PHE96       0.1771
      7  C         29.6920   24.4260   56.5070 C.2    96  PHE96       0.2619
      8  O         30.7290   23.7670   56.5750 O.2    96  PHE96      -0.2715
      9  CB        29.5810   26.5270   57.8380 C.3    96  PHE96       0.0574
     10  CG        29.2510   27.3640   56.6300 C.ar   96  PHE96      -0.0200
     11  CD1       27.9260   27.5640   56.2410 C.ar   96  PHE96      -0.0042
     12  CD2       30.2590   27.9380   55.8700 C.ar   96  PHE96      -0.0042
     13  CE1       27.6110   28.3210   55.1120 C.ar   96  PHE96      -0.0003
     14  CE2       29.9530   28.6980   54.7410 C.ar   96  PHE96      -0.0003
     15  CZ        28.6270   28.8880   54.3620 C.ar   96  PHE96      -0.0000
     16  N         29.0160   24.6240   55.3820 N.am   97  MET97      -0.1977
     17  CA        29.4240   24.0810   54.0960 C.3    97  MET97       0.1605
     18  C         28.5950   24.7650   53.0110 C.2    97  MET97       0.2287
     19  O         27.3600   24.6800   53.0060 O.2    97  MET97      -0.2864
     20  CB        29.1850   22.5660   54.0580 C.3    97  MET97       0.0413
     21  CG        29.5130   21.9020   52.7360 C.3    97  MET97       0.0598
     22  SD        31.2700   21.9300   52.3530 S.3    97  MET97      -0.1393
     23  CE        31.9000   20.7480   53.6140 C.3    97  MET97       0.0692
     24  N         26.8170   20.5930   49.0280 N.3   102  MET102     -0.1230
     25  CA        25.6800   19.8910   49.6190 C.3   102  MET102      0.1702
     26  C         24.4610   19.9250   48.6940 C.2   102  MET102      0.2592
     27  O         24.5380   20.4130   47.5630 O.2   102  MET102     -0.2718
     28  CB        25.3000   20.5060   50.9710 C.3   102  MET102      0.0401
     29  CG        26.3540   20.3690   52.0560 C.3   102  MET102      0.0596
     30  SD        25.6690   20.6080   53.7130 S.3   102  MET102     -0.1393
     31  CE        25.3030   22.3830   53.6940 C.3   102  MET102      0.0692
     32  N         23.3420   19.3960   49.1810 N.am  103  GLY103     -0.1957
     33  CA        22.1160   19.3920   48.4040 C.3   103  GLY103      0.1869
     34  C         22.1150   18.5040   47.1750 C.2   103  GLY103      0.2309
     35  O         22.3400   17.2960   47.2710 O.2   103  GLY103     -0.2863
     36  N         27.6710   14.2730   63.1090 N.3   148  PHE148     -0.1241
     37  CA        26.5810   13.6370   62.3780 C.3   148  PHE148      0.1605
     38  C         27.0710   12.4030   61.6180 C.2   148  PHE148      0.2264
     39  O         27.5510   12.4980   60.4970 O.2   148  PHE148     -0.2867
     40  CB        25.9350   14.6230   61.4150 C.3   148  PHE148      0.0534
     41  CG        24.6680   14.1140   60.8020 C.ar  148  PHE148     -0.0203
     42  CD1       24.6880   13.4270   59.5950 C.ar  148  PHE148     -0.0042
     43  CD2       23.4470   14.3230   61.4360 C.ar  148  PHE148     -0.0042
     44  CE1       23.5120   12.9560   59.0210 C.ar  148  PHE148     -0.0003
     45  CE2       22.2570   13.8530   60.8680 C.ar  148  PHE148     -0.0003
     46  CZ        22.2900   13.1700   59.6580 C.ar  148  PHE148     -0.0000
     47  N         26.1290    8.7700   52.2040 N.3   154  MET154     -0.1231
     48  CA        24.7120    9.1010   52.1070 C.3   154  MET154      0.1687
     49  C         24.4340   10.2150   51.0980 C.2   154  MET154      0.2434
     50  O         25.2070   11.1620   50.9740 O.2   154  MET154     -0.2733
     51  CB        24.1730    9.4880   53.4910 C.3   154  MET154      0.0400
     52  CG        24.9000   10.6530   54.1560 C.3   154  MET154      0.0596
     53  SD        24.3470   10.9290   55.8560 S.3   154  MET154     -0.1393
     54  CE        25.7820   10.3860   56.7470 C.3   154  MET154      0.0692
     55  N         23.3190   10.1020   50.3560 N.am  155  PRO155     -0.2718
     56  CA        22.8980   11.0770   49.3430 C.3   155  PRO155      0.1535
     57  C         22.8140   12.5390   49.8050 C.2   155  PRO155      0.2598
     58  O         22.4570   12.8280   50.9510 O.2   155  PRO155     -0.2715
     59  CB        21.5450   10.5300   48.8780 C.3   155  PRO155      0.0310
     60  CG        21.0870    9.6660   50.0280 C.3   155  PRO155      0.0237
     61  CD        22.3520    8.9930   50.4390 C.3   155  PRO155      0.0939
     62  N         23.1570   13.4520   48.8960 N.am  156  ALA156     -0.1964
     63  CA        23.1290   14.8890   49.1640 C.3   156  ALA156      0.1728
     64  C         24.1790   15.3790   50.1620 C.2   156  ALA156      0.2616
     65  O         24.9980   16.2370   49.8310 O.2   156  ALA156     -0.2715
     66  CB        21.7350   15.3060   49.6410 C.3   156  ALA156      0.0334
     67  N         24.1550   14.8330   51.3760 N.am  157  TYR157     -0.1974
     68  CA        25.0800   15.2380   52.4350 C.3   157  TYR157      0.1639
     69  C         26.5260   15.4800   51.9990 C.2   157  TYR157      0.2290
     70  O         27.1940   16.3800   52.5150 O.2   157  TYR157     -0.2864
     71  CB        25.0620   14.2090   53.5610 C.3   157  TYR157      0.0560
     72  CG        25.3130   14.8080   54.9300 C.ar  157  TYR157     -0.0198
     73  CD1       25.9270   14.0660   55.9320 C.ar  157  TYR157     -0.0009
     74  CD2       24.9280   16.1160   55.2220 C.ar  157  TYR157     -0.0009
     75  CE1       26.1590   14.6050   57.1840 C.ar  157  TYR157      0.0417
     76  CE2       25.1490   16.6650   56.4760 C.ar  157  TYR157      0.0417
     77  CZ        25.7680   15.9030   57.4530 C.ar  157  TYR157      0.1957
     78  OH        25.9980   16.4370   58.7010 O.3   157  TYR157     -0.2866
     79  N         29.7210   17.7200   53.6060 N.3   160  MET160     -0.1245
     80  CA        29.5840   18.0130   55.0300 C.3   160  MET160      0.1570
     81  C         29.9810   16.7060   55.7450 C.2   160  MET160      0.2261
     82  O         30.6280   16.7190   56.7910 O.2   160  MET160     -0.2867
     83  CB        28.1390   18.4090   55.3650 C.3   160  MET160      0.0387
     84  CG        27.9150   18.8740   56.8160 C.3   160  MET160      0.0595
     85  SD        28.6410   20.4910   57.2730 S.3   160  MET160     -0.1393
     86  CE        30.1150   19.9670   58.1750 C.3   160  MET160      0.0692
     87  N         32.6540   16.0860   58.7050 N.3   164  LYS164     -0.1245
     88  CA        32.3310   15.4080   59.9510 C.3   164  LYS164      0.1561
     89  C         33.2790   14.2680   60.2820 C.2   164  LYS164      0.2260
     90  O         33.6440   14.0800   61.4470 O.2   164  LYS164     -0.2867
     91  CB        30.8900   14.8920   59.9040 C.3   164  LYS164      0.0271
     92  CG        29.8540   15.9840   60.0050 C.3   164  LYS164      0.0035
     93  CD        30.0260   16.7320   61.3110 C.3   164  LYS164      0.0206
     94  CE        28.9680   17.8120   61.5150 C.3   164  LYS164      0.1093
     95  NZ        29.0360   18.4490   62.8760 N.3   164  LYS164     -0.1314
     96  N         18.6390   14.0200   62.8390 N.3   192  PRO192     -0.2116
     97  CA        18.1190   15.2720   62.2820 C.3   192  PRO192      0.1372
     98  C         17.1220   16.0160   63.1660 C.2   192  PRO192      0.2244
     99  O         16.2900   15.4080   63.8280 O.2   192  PRO192     -0.2868
    100  CB        17.4960   14.8250   60.9570 C.3   192  PRO192      0.0268
    101  CG        18.3160   13.6240   60.5860 C.3   192  PRO192      0.0207
    102  CD        18.4190   12.9020   61.9090 C.3   192  PRO192      0.0892
    103  N         14.6100   22.7150   61.9790 N.3   195  THR195     -0.1218
    104  CA        14.8310   24.1180   62.3220 C.3   195  THR195      0.1862
    105  C         14.4260   25.0630   61.1770 C.2   195  THR195      0.2287
    106  O         13.2460   25.4060   61.0370 O.2   195  THR195     -0.2866
    107  CB        16.3080   24.3600   62.6880 C.3   195  THR195      0.1770
    108  OG1       17.1300   24.1860   61.5270 O.3   195  THR195     -0.2211
    109  CG2       16.7490   23.3680   63.7560 C.3   195  THR195      0.0375
    110  N         16.5800   24.8630   58.0000 N.3   197  ALA197     -0.1231
    111  CA        17.3120   24.3870   56.8340 C.3   197  ALA197      0.1694
    112  C         16.5440   23.3650   56.0050 C.2   197  ALA197      0.2591
    113  O         16.1260   23.6600   54.8870 O.2   197  ALA197     -0.2718
    114  CB        18.6510   23.8020   57.2690 C.3   197  ALA197      0.0304
    115  N         16.3610   22.1670   56.5590 N.am  198  MET198     -0.1979
    116  CA        15.6670   21.0700   55.8740 C.3   198  MET198      0.1605
    117  C         14.2610   21.3430   55.3420 C.2   198  MET198      0.2287
    118  O         13.8030   20.6590   54.4220 O.2   198  MET198     -0.2864
    119  CB        15.6250   19.8350   56.7760 C.3   198  MET198      0.0413
    120  CG        16.9760   19.1720   56.9550 C.3   198  MET198      0.0598
    121  SD        16.9140   17.8360   58.1550 S.3   198  MET198     -0.1393
    122  CE        17.2020   18.7510   59.6750 C.3   198  MET198      0.0692
    123  N         15.2070   21.9040   52.1300 N.3   201  ILE201     -0.1245
    124  CA        16.1870   20.9700   51.5710 C.3   201  ILE201      0.1561
    125  C         15.4430   19.8220   50.8820 C.2   201  ILE201      0.2260
    126  O         16.0270   19.0290   50.1380 O.2   201  ILE201     -0.2867
    127  CB        17.1250   20.4210   52.6880 C.3   201  ILE201      0.0252
    128  CG1       17.8950   21.5860   53.3230 C.3   201  ILE201      0.0019
    129  CG2       18.1080   19.4080   52.1140 C.3   201  ILE201      0.0019
    130  CD1       18.7540   21.2020   54.5030 C.3   201  ILE201      0.0001
    131  N         18.5650   24.1990   49.0220 N.3   206  LEU206     -0.1245
    132  CA        19.6320   23.2040   49.1680 C.3   206  LEU206      0.1561
    133  C         19.2490   21.8700   48.5160 C.2   206  LEU206      0.2260
    134  O         19.5100   20.8000   49.0680 O.2   206  LEU206     -0.2867
    135  CB        19.9610   22.9730   50.6560 C.3   206  LEU206      0.0270
    136  CG        20.7950   23.9960   51.4450 C.3   206  LEU206      0.0019
    137  CD1       20.0900   25.3420   51.4830 C.3   206  LEU206      0.0001
    138  CD2       21.0230   23.4790   52.8620 C.3   206  LEU206      0.0001
    139  N         16.3230   13.9400   51.3240 N.3   214  ILE214     -0.1245
    140  CA        16.5240   14.5650   52.6270 C.3   214  ILE214      0.1561
    141  C         15.1950   14.5110   53.3660 C.2   214  ILE214      0.2260
    142  O         15.0780   14.9620   54.5040 O.2   214  ILE214     -0.2867
    143  CB        16.9650   16.0430   52.4880 C.3   214  ILE214      0.0252
    144  CG1       18.1720   16.1330   51.5530 C.3   214  ILE214      0.0019
    145  CG2       17.2970   16.6300   53.8560 C.3   214  ILE214      0.0019
    146  CD1       19.2430   15.0980   51.8280 C.3   214  ILE214      0.0001
    147  N         14.4010   10.0010   53.2040 N.3   217  LEU217     -0.1231
    148  CA        15.4080    9.4720   54.1220 C.3   217  LEU217      0.1693
    149  C         15.1570    9.9690   55.5480 C.2   217  LEU217      0.2591
    150  O         15.0350    9.1760   56.4830 O.2   217  LEU217     -0.2718
    151  CB        16.8020    9.9080   53.6510 C.3   217  LEU217      0.0284
    152  CG        18.0680    9.5510   54.4400 C.3   217  LEU217      0.0019
    153  CD1       19.2930    9.8920   53.5990 C.3   217  LEU217      0.0001
    154  CD2       18.1100   10.3050   55.7550 C.3   217  LEU217      0.0001
    155  N         15.0810   11.2880   55.7030 N.am  218  GLU218     -0.1979
    156  CA        14.8560   11.9090   57.0030 C.3   218  GLU218      0.1602
    157  C         13.6160   11.3320   57.6790 C.2   218  GLU218      0.2287
    158  O         13.5510   11.2290   58.9020 O.2   218  GLU218     -0.2864
    159  CB        14.7040   13.4230   56.8300 C.3   218  GLU218      0.0415
    160  CG        14.6960   14.2120   58.1340 C.3   218  GLU218      0.1163
    161  CD        14.4410   15.7000   57.9270 C.2   218  GLU218      0.3649
    162  OE1       14.3850   16.4360   58.9350 O.co2 218  GLU218     -0.2457
    163  OE2       14.2950   16.1330   56.7640 O.co2 218  GLU218     -0.2457
    164  N         14.2450    7.8010   59.4400 N.3   221  TRP221     -0.1241
    165  CA        15.1460    7.7520   60.5850 C.3   221  TRP221      0.1605
    166  C         14.3950    7.3200   61.8480 C.2   221  TRP221      0.2264
    167  O         15.0040    6.8860   62.8220 O.2   221  TRP221     -0.2867
    168  CB        15.7900    9.1170   60.7980 C.3   221  TRP221      0.0550
    169  CG        17.0280    9.0870   61.6430 C.ar  221  TRP221      0.0003
    170  CD1       17.0980    8.9390   63.0000 C.ar  221  TRP221      0.0946
    171  CD2       18.3740    9.2700   61.1880 C.ar  221  TRP221      0.0152
    172  NE1       18.4060    9.0270   63.4170 N.ar  221  TRP221     -0.2442
    173  CE2       19.2090    9.2300   62.3260 C.ar  221  TRP221      0.0810
    174  CE3       18.9550    9.4670   59.9290 C.ar  221  TRP221      0.0012
    175  CZ2       20.5920    9.3830   62.2430 C.ar  221  TRP221      0.0191
    176  CZ3       20.3330    9.6190   59.8450 C.ar  221  TRP221      0.0001
    177  CH2       21.1360    9.5770   60.9960 C.ar  221  TRP221      0.0015
@<TRIPOS>BOND
     1    34    35    2
     2    34    33    1
     3    27    26    2
     4    33    32    1
     5   133   134    2
     6   133   132    1
     7    26    32   am
     8    26    25    1
     9    59    56    1
    10    59    60    1
    11    62    63    1
    12    62    57   am
    13   131   132    1
    14    24    25    1
    15    63    66    1
    16    63    64    1
    17   132   135    1
    18    56    57    1
    19    56    55    1
    20    25    28    1
    21    57    58    2
    22    65    64    2
    23    60    61    1
    24   126   125    2
    25    64    67   am
    26    55    61    1
    27    55    49   am
    28   135   136    1
    29   125   124    1
    30    28    29    1
    31    50    49    2
    32    49    48    1
    33   139   140    1
    34    67    68    1
    35   136   137    1
    36   136   138    1
    37   144   146    1
    38   144   143    1
    39   124   123    1
    40   124   127    1
    41    69    68    1
    42    69    70    2
    43    29    30    1
    44    48    47    1
    45    48    51    1
    46   129   127    1
    47    22    21    1
    48    22    23    1
    49    68    71    1
    50   143   140    1
    51   143   145    1
    52   140   141    1
    53   127   128    1
    54    21    20    1
    55    19    18    2
    56    18    17    1
    57   147   148    1
    58   128   130    1
    59   141   142    2
    60    51    52    1
    61    71    72    1
    62   153   152    1
    63    79    80    1
    64   151   148    1
    65   151   152    1
    66    31    30    1
    67    20    17    1
    68    17    16    1
    69   148   149    1
    70    52    53    1
    71    15    14   ar
    72    15    13   ar
    73   118   117    2
    74   152   154    1
    75    14    12   ar
    76   113   112    2
    77    72    74   ar
    78    72    73   ar
    79    80    83    1
    80    80    81    1
    81    13    11   ar
    82    74    76   ar
    83   117   116    1
    84    83    84    1
    85    16     7   am
    86   149   155   am
    87   149   150    2
    88   155   156    1
    89    81    82    2
    90    53    54    1
    91    12    10   ar
    92   116   115    1
    93   116   119    1
    94    73    75   ar
    95   112   115   am
    96   112   111    1
    97    11    10   ar
    98    76    77   ar
    99     7     8    2
   100     7     6    1
   101    10     9    1
   102   163   161   ar
   103   119   120    1
   104    84    85    1
   105   159   156    1
   106   159   160    1
   107   111   114    1
   108   111   110    1
   109   120   121    1
   110   156   157    1
   111    75    77   ar
   112    85    86    1
   113    77    78    1
   114   157   158    2
   115     6     9    1
   116     6     5    1
   117   161   160    1
   118   161   162   ar
   119   121   122    1
   120    87    88    1
   121     5     3   am
   122    44    42   ar
   123    44    46   ar
   124   164   165    1
   125    42    41   ar
   126    46    45   ar
   127   176   174   ar
   128   176   177   ar
   129    91    88    1
   130    91    92    1
   131   174   171   ar
   132    88    89    1
   133    92    93    1
   134     3     4    2
   135     3     2    1
   136    89    90    2
   137    39    38    2
   138   165   168    1
   139   165   166    1
   140   101   100    1
   141   101   102    1
   142   168   169    1
   143    41    40    1
   144    41    43   ar
   145    45    43   ar
   146   100    97    1
   147   177   175   ar
   148   106   105    2
   149   105   104    1
   150   171   169   ar
   151   171   173   ar
   152    93    94    1
   153     2     1    1
   154    40    37    1
   155    94    95    1
   156   108   107    1
   157    38    37    1
   158   169   170   ar
   159   166   167    2
   160   102    96    1
   161   103   104    1
   162   175   173   ar
   163    97    96    1
   164    97    98    1
   165   104   107    1
   166   173   172   ar
   167    37    36    1
   168   107   109    1
   169   170   172   ar
   170    98    99    2
