@<TRIPOS>MOLECULE
tmp/1p45A02.pdb
 132 125 0 0 0
SMALL
GASTEIGER

@<TRIPOS>ATOM
      1  N         18.1430    7.4390   38.0910 N.3    99  GLN99      -0.1245
      2  CA        17.6960    8.2570   39.2610 C.3    99  GLN99       0.1566
      3  C         18.4850    9.5460   39.3740 C.2    99  GLN99       0.2260
      4  O         18.1490   10.5400   40.0420 O.2    99  GLN99      -0.2867
      5  CB        17.7560    7.4400   40.5680 C.3    99  GLN99       0.0367
      6  CG        16.3330    6.9610   41.0650 C.3    99  GLN99       0.0905
      7  CD        15.3110    8.1240   41.3140 C.2    99  GLN99       0.2608
      8  OE1       14.1430    8.0650   40.8670 O.2    99  GLN99      -0.2717
      9  NE2       15.7570    9.1620   42.0320 N.am   99  GLN99      -0.0878
     10  N         16.4330   12.4040   38.1330 N.3   102  MET102     -0.1230
     11  CA        15.2000   12.6840   38.8250 C.3   102  MET102      0.1702
     12  C         15.3400   12.9540   40.3050 C.2   102  MET102      0.2592
     13  O         16.4280   12.9770   40.8250 O.2   102  MET102     -0.2718
     14  CB        14.2730   11.5300   38.5300 C.3   102  MET102      0.0401
     15  CG        13.9150   11.5030   37.0510 C.3   102  MET102      0.0596
     16  SD        12.8570   10.2070   36.9100 S.3   102  MET102     -0.1393
     17  CE        11.2390   10.9800   37.2650 C.3   102  MET102      0.0692
     18  N         14.2080   13.2230   40.9490 N.am  103  GLY103     -0.1957
     19  CA        14.1120   13.7660   42.2940 C.3   103  GLY103      0.1869
     20  C         14.9650   14.9870   42.6070 C.2   103  GLY103      0.2309
     21  O         14.9460   15.9920   41.9110 O.2   103  GLY103     -0.2863
     22  N          3.1270   12.4880   30.4620 N.3   148  PHE148     -0.1241
     23  CA         2.9350   13.4410   31.5770 C.3   148  PHE148      0.1605
     24  C          3.2840   14.8260   31.1170 C.2   148  PHE148      0.2264
     25  O          4.3930   15.0290   30.6610 O.2   148  PHE148     -0.2867
     26  CB         3.9030   13.1370   32.7580 C.3   148  PHE148      0.0534
     27  CG         3.5710   13.8480   34.0920 C.ar  148  PHE148     -0.0203
     28  CD1        4.5340   14.5920   34.7530 C.ar  148  PHE148     -0.0042
     29  CD2        2.3200   13.7190   34.7030 C.ar  148  PHE148     -0.0042
     30  CE1        4.2400   15.2230   36.0320 C.ar  148  PHE148     -0.0003
     31  CE2        2.0300   14.2930   35.9010 C.ar  148  PHE148     -0.0003
     32  CZ         3.0030   15.0480   36.5650 C.ar  148  PHE148     -0.0000
     33  N          8.9430   21.7790   36.5410 N.3   154  MET154     -0.1245
     34  CA         8.4350   21.3590   37.8510 C.3   154  MET154      0.1570
     35  C          9.5350   20.7500   38.5960 C.2   154  MET154      0.2261
     36  O         10.4510   20.1630   38.0250 O.2   154  MET154     -0.2867
     37  CB         7.2770   20.3240   37.7560 C.3   154  MET154      0.0387
     38  CG         7.6510   18.9020   37.2990 C.3   154  MET154      0.0595
     39  SD         6.2460   17.9420   36.9330 S.3   154  MET154     -0.1393
     40  CE         5.6250   18.6050   35.2430 C.3   154  MET154      0.0692
     41  N         11.3260   17.7730   40.6070 N.3   156  ALA156     -0.1231
     42  CA        11.3660   16.3200   40.6770 C.3   156  ALA156      0.1694
     43  C         11.5060   15.6610   39.2930 C.2   156  ALA156      0.2592
     44  O         12.4900   14.9910   39.0490 O.2   156  ALA156     -0.2718
     45  CB        10.1210   15.7900   41.4400 C.3   156  ALA156      0.0304
     46  N         10.5160   15.8320   38.4090 N.am  157  TYR157     -0.1976
     47  CA        10.4310   15.1780   37.0970 C.3   157  TYR157      0.1639
     48  C         11.6930   15.3930   36.2910 C.2   157  TYR157      0.2290
     49  O         12.1130   14.5020   35.6190 O.2   157  TYR157     -0.2864
     50  CB         9.1670   15.6720   36.3350 C.3   157  TYR157      0.0560
     51  CG         8.5690   14.6360   35.3990 C.ar  157  TYR157     -0.0198
     52  CD1        8.3570   13.3190   35.8320 C.ar  157  TYR157     -0.0009
     53  CD2        8.2120   14.9560   34.0750 C.ar  157  TYR157     -0.0009
     54  CE1        7.8330   12.3580   34.9890 C.ar  157  TYR157      0.0417
     55  CE2        7.6770   13.9590   33.2130 C.ar  157  TYR157      0.0417
     56  CZ         7.5060   12.6890   33.6920 C.ar  157  TYR157      0.1957
     57  OH         7.0020   11.7080   32.9280 O.3   157  TYR157     -0.2866
     58  N         -1.1500   12.1170   38.1230 N.3   192  PRO192     -0.2116
     59  CA        -0.3300   11.1780   38.8930 C.3   192  PRO192      0.1372
     60  C         -1.1800   10.0400   39.4370 C.2   192  PRO192      0.2244
     61  O         -2.3420   10.2040   39.8320 O.2   192  PRO192     -0.2868
     62  CB         0.1520   12.0040   40.0750 C.3   192  PRO192      0.0268
     63  CG         0.0660   13.2000   39.6650 C.3   192  PRO192      0.0207
     64  CD        -1.2670   13.3720   38.8570 C.3   192  PRO192      0.0892
     65  N          6.0750    2.4340   42.7240 N.3   197  ALA197     -0.1231
     66  CA         7.2830    3.2580   42.8840 C.3   197  ALA197      0.1694
     67  C          6.9400    4.6170   43.5850 C.2   197  ALA197      0.2591
     68  O          7.7200    5.1940   44.3510 O.2   197  ALA197     -0.2718
     69  CB         7.9400    3.4700   41.5090 C.3   197  ALA197      0.0304
     70  N          5.7320    5.0930   43.3190 N.am  198  MET198     -0.1979
     71  CA         5.2270    6.2850   43.9090 C.3   198  MET198      0.1605
     72  C          4.7120    6.0630   45.3170 C.2   198  MET198      0.2287
     73  O          4.8210    6.9550   46.1080 O.2   198  MET198     -0.2864
     74  CB         4.0770    6.8160   43.0660 C.3   198  MET198      0.0413
     75  CG         4.4940    7.1110   41.6560 C.3   198  MET198      0.0598
     76  SD         5.0030    8.7650   41.4680 S.3   198  MET198     -0.1393
     77  CE         3.2940    9.5760   41.6970 C.3   198  MET198      0.0692
     78  N          7.9550    6.7250   47.0200 N.3   201  ILE201     -0.1245
     79  CA         8.6310    8.0020   47.1570 C.3   201  ILE201      0.1561
     80  C          7.8220    8.8990   48.1550 C.2   201  ILE201      0.2260
     81  O          8.4160    9.5170   49.0620 O.2   201  ILE201     -0.2867
     82  CB         9.2310    8.6350   45.7870 C.3   201  ILE201      0.0252
     83  CG1        8.6580    9.9800   45.4660 C.3   201  ILE201      0.0019
     84  CG2        9.1990    7.7140   44.5080 C.3   201  ILE201      0.0019
     85  CD1        7.2790    9.9030   44.9580 C.3   201  ILE201      0.0001
     86  N         13.2940    8.4530   48.8110 N.3   206  LEU206     -0.1245
     87  CA        14.2060    9.5190   48.3350 C.3   206  LEU206      0.1561
     88  C         14.4970   10.5900   49.4190 C.2   206  LEU206      0.2260
     89  O         15.2310   11.5380   49.1520 O.2   206  LEU206     -0.2867
     90  CB        13.6620   10.1980   47.0500 C.3   206  LEU206      0.0270
     91  CG        13.7630    9.5880   45.6020 C.3   206  LEU206      0.0019
     92  CD1       14.5490    8.2580   45.4710 C.3   206  LEU206      0.0001
     93  CD2       12.3900    9.4720   44.8750 C.3   206  LEU206      0.0001
     94  N          7.4630   16.3920   46.4530 N.3   214  ILE214     -0.1245
     95  CA         6.5120   15.5540   45.6750 C.3   214  ILE214      0.1561
     96  C          5.0850   15.5400   46.2280 C.2   214  ILE214      0.2260
     97  O          4.1310   15.2870   45.5440 O.2   214  ILE214     -0.2867
     98  CB         7.0710   14.0880   45.5080 C.3   214  ILE214      0.0252
     99  CG1        8.2410   14.1020   44.5140 C.3   214  ILE214      0.0019
    100  CG2        5.9240   12.9980   45.1610 C.3   214  ILE214      0.0019
    101  CD1        9.6170   14.1280   45.1460 C.3   214  ILE214      0.0001
    102  N          3.2390   19.0050   45.3080 N.3   217  LEU217     -0.1231
    103  CA         3.1650   19.0270   43.8430 C.3   217  LEU217      0.1693
    104  C          2.0140   18.1470   43.3740 C.2   217  LEU217      0.2591
    105  O          1.0990   18.5590   42.5940 O.2   217  LEU217     -0.2718
    106  CB         4.5180   18.5290   43.2540 C.3   217  LEU217      0.0284
    107  CG         4.5220   18.0170   41.7860 C.3   217  LEU217      0.0019
    108  CD1        4.2090   19.1750   40.8140 C.3   217  LEU217      0.0001
    109  CD2        5.8120   17.2980   41.3760 C.3   217  LEU217      0.0001
    110  N          2.1520   16.9170   43.8440 N.am  218  GLU218     -0.1979
    111  CA         1.2200   15.8140   43.7080 C.3   218  GLU218      0.1602
    112  C         -0.1600   16.1770   44.1730 C.2   218  GLU218      0.2287
    113  O         -1.1200   15.7900   43.6020 O.2   218  GLU218     -0.2864
    114  CB         1.6990   14.6540   44.6130 C.3   218  GLU218      0.0415
    115  CG         1.5060   13.2190   44.0810 C.3   218  GLU218      0.1163
    116  CD         1.8770   12.1340   45.1010 C.2   218  GLU218      0.3649
    117  OE1        1.1010   11.9060   46.1020 O.co2 218  GLU218     -0.2457
    118  OE2        2.9650   11.5320   44.8730 O.co2 218  GLU218     -0.2457
    119  N         -2.9320   18.6960   42.0990 N.3   221  TRP221     -0.1241
    120  CA        -3.7740   18.2080   41.0050 C.3   221  TRP221      0.1605
    121  C         -5.2660   18.1730   41.4060 C.2   221  TRP221      0.2264
    122  O         -6.1260   18.6010   40.6660 O.2   221  TRP221     -0.2867
    123  CB        -3.3350   16.7910   40.5620 C.3   221  TRP221      0.0550
    124  CG        -2.7080   16.7410   39.1560 C.ar  221  TRP221      0.0003
    125  CD1       -3.3570   16.4900   37.9550 C.ar  221  TRP221      0.0946
    126  CD2       -1.3200   16.9670   38.8100 C.ar  221  TRP221      0.0152
    127  NE1       -2.4480   16.5420   36.9230 N.ar  221  TRP221     -0.2442
    128  CE2       -1.2080   16.8380   37.4140 C.ar  221  TRP221      0.0810
    129  CE3       -0.1620   17.2900   39.5530 C.ar  221  TRP221      0.0012
    130  CZ2       -0.0340   17.0110   36.7430 C.ar  221  TRP221      0.0191
    131  CZ3        1.0510   17.4280   38.8690 C.ar  221  TRP221      0.0001
    132  CH2        1.0910   17.3040   37.4580 C.ar  221  TRP221      0.0015
@<TRIPOS>BOND
     1    22    23    1
     2    25    24    2
     3    24    23    1
     4    23    26    1
     5    26    27    1
     6    57    56    1
     7    55    56   ar
     8    55    53   ar
     9    56    54   ar
    10    53    51   ar
    11    27    29   ar
    12    27    28   ar
    13    29    31   ar
    14    28    30   ar
    15    54    52   ar
    16    40    39    1
    17    51    52   ar
    18    51    50    1
    19    49    48    2
    20    31    32   ar
    21    30    32   ar
    22    48    47    1
    23    50    47    1
    24    33    34    1
    25   130   128   ar
    26   130   132   ar
    27    16    15    1
    28    16    17    1
    29   127   128   ar
    30   127   125   ar
    31    39    38    1
    32    15    14    1
    33    47    46    1
    34    38    37    1
    35   128   126   ar
    36   132   131   ar
    37    37    34    1
    38    34    35    1
    39   125   124   ar
    40    36    35    2
    41     1     2    1
    42    58    64    1
    43    58    59    1
    44    10    11    1
    45    46    43   am
    46    14    11    1
    47   126   124   ar
    48   126   129   ar
    49    11    12    1
    50    64    63    1
    51   131   129   ar
    52    59    60    1
    53    59    62    1
    54    44    43    2
    55   124   123    1
    56     2     3    1
    57     2     5    1
    58    43    42    1
    59     3     4    2
    60    60    61    2
    61    63    62    1
    62    12    13    2
    63    12    18   am
    64   123   120    1
    65     5     6    1
    66    41    42    1
    67   122   121    2
    68    42    45    1
    69   108   107    1
    70     8     7    2
    71    18    19    1
    72   120   121    1
    73   120   119    1
    74     6     7    1
    75     7     9   am
    76   109   107    1
    77    76    75    1
    78    76    77    1
    79    69    66    1
    80    75    74    1
    81   107   106    1
    82    21    20    2
    83    19    20    1
    84   105   104    2
    85    65    66    1
    86    66    67    1
    87    74    71    1
    88   106   103    1
    89    70    67   am
    90    70    71    1
    91   104   103    1
    92   104   110   am
    93    67    68    2
    94   113   112    2
    95   111   110    1
    96   111   112    1
    97   111   114    1
    98   103   102    1
    99    71    72    1
   100   115   114    1
   101   115   116    1
   102    84    82    1
   103    99   101    1
   104    99    98    1
   105   118   116   ar
   106    93    91    1
   107    85    83    1
   108   116   117   ar
   109   100    98    1
   110    72    73    2
   111    83    82    1
   112    92    91    1
   113    98    95    1
   114    97    96    2
   115    91    90    1
   116    95    96    1
   117    95    94    1
   118    82    79    1
   119    78    79    1
   120    90    87    1
   121    79    80    1
   122    80    81    2
   123    87    86    1
   124    87    88    1
   125    89    88    2
