@<TRIPOS>MOLECULE
tmp/1p49A00.pdb
 82 74 0 0 0
SMALL
GASTEIGER

@<TRIPOS>ATOM
      1  N         73.5700  -21.3230   41.3630 N.3   162  LEU162     -0.1245
      2  CA        72.4870  -21.2910   42.3180 C.3   162  LEU162      0.1561
      3  C         71.5250  -22.4660   42.3350 C.2   162  LEU162      0.2260
      4  O         70.8800  -22.7110   43.3510 O.2   162  LEU162     -0.2867
      5  CB        71.7260  -19.9750   42.1480 C.3   162  LEU162      0.0270
      6  CG        72.6010  -18.7570   42.4740 C.3   162  LEU162      0.0019
      7  CD1       72.0190  -17.5030   41.8680 C.3   162  LEU162      0.0001
      8  CD2       72.7410  -18.6250   43.9810 C.3   162  LEU162      0.0001
      9  N         74.1480  -26.9400   43.1410 N.3   166  PRO166     -0.2116
     10  CA        73.7760  -27.4350   44.4720 C.3   166  PRO166      0.1372
     11  C         72.7530  -28.5620   44.3620 C.2   166  PRO166      0.2244
     12  O         72.6380  -29.4250   45.2400 O.2   166  PRO166     -0.2868
     13  CB        73.2480  -26.1840   45.1750 C.3   166  PRO166      0.0268
     14  CG        72.7510  -25.3340   44.0430 C.3   166  PRO166      0.0207
     15  CD        73.7800  -25.5220   42.9660 C.3   166  PRO166      0.0892
     16  N         74.9650  -31.5210   44.1490 N.3   169  ILE169     -0.1231
     17  CA        75.6020  -31.9260   45.3930 C.3   169  ILE169      0.1692
     18  C         74.5890  -32.7480   46.1980 C.2   169  ILE169      0.2591
     19  O         74.8770  -33.8650   46.6360 O.2   169  ILE169     -0.2718
     20  CB        76.0510  -30.7010   46.2180 C.3   169  ILE169      0.0266
     21  CG1       77.1740  -29.9740   45.4740 C.3   169  ILE169      0.0019
     22  CG2       76.4910  -31.1350   47.6110 C.3   169  ILE169      0.0020
     23  CD1       77.8380  -28.8400   46.2670 C.3   169  ILE169      0.0001
     24  N         73.4010  -32.1860   46.3820 N.am  170  VAL170     -0.1980
     25  CA        72.3360  -32.8690   47.1000 C.3   170  VAL170      0.1595
     26  C         72.0490  -34.2200   46.4530 C.2   170  VAL170      0.2287
     27  O         71.9820  -35.2340   47.1290 O.2   170  VAL170     -0.2864
     28  CB        71.0290  -32.0430   47.0790 C.3   170  VAL170      0.0276
     29  CG1       69.9200  -32.8370   47.6900 C.3   170  VAL170      0.0022
     30  CG2       71.2220  -30.7270   47.8290 C.3   170  VAL170      0.0022
     31  N         74.9670  -36.5660   46.9180 N.3   173  THR173     -0.1218
     32  CA        75.0290  -36.8920   48.3370 C.3   173  THR173      0.1862
     33  C         73.9900  -37.9150   48.7340 C.2   173  THR173      0.2287
     34  O         74.2640  -38.8130   49.5290 O.2   173  THR173     -0.2866
     35  CB        74.8260  -35.6610   49.2050 C.3   173  THR173      0.1770
     36  OG1       75.9250  -34.7740   49.0020 O.3   173  THR173     -0.2211
     37  CG2       74.7570  -36.0420   50.6700 C.3   173  THR173      0.0375
     38  N         74.6710  -41.7570   49.8400 N.3   177  LEU177     -0.1245
     39  CA        74.2040  -42.0840   51.1840 C.3   177  LEU177      0.1561
     40  C         73.3140  -43.3350   51.0850 C.2   177  LEU177      0.2260
     41  O         73.3170  -44.2000   51.9600 O.2   177  LEU177     -0.2867
     42  CB        73.4310  -40.8910   51.7670 C.3   177  LEU177      0.0270
     43  CG        73.9200  -40.2900   53.0990 C.3   177  LEU177      0.0019
     44  CD1       75.4000  -40.5140   53.2530 C.3   177  LEU177      0.0001
     45  CD2       73.5900  -38.8110   53.1570 C.3   177  LEU177      0.0001
     46  N         67.5690  -37.7430   57.5030 N.3   192  VAL192     -0.1245
     47  CA        68.5690  -37.1340   56.6350 C.3   192  VAL192      0.1561
     48  C         68.1100  -37.2190   55.1910 C.2   192  VAL192      0.2260
     49  O         68.2820  -36.2720   54.4120 O.2   192  VAL192     -0.2867
     50  CB        69.9370  -37.8210   56.7800 C.3   192  VAL192      0.0252
     51  CG1       70.9410  -37.2170   55.7820 C.3   192  VAL192      0.0019
     52  CG2       70.4410  -37.6680   58.2090 C.3   192  VAL192      0.0019
     53  N         65.6830  -34.4780   54.7840 N.3   195  SER195     -0.1202
     54  CA        66.3150  -33.1800   54.6560 C.3   195  SER195      0.2020
     55  C         66.8920  -32.9270   53.2700 C.2   195  SER195      0.2618
     56  O         66.9210  -31.7880   52.8030 O.2   195  SER195     -0.2717
     57  CB        67.4120  -33.0350   55.7020 C.3   195  SER195      0.2103
     58  OG        66.8730  -33.2440   56.9900 O.3   195  SER195     -0.2182
     59  N         67.3510  -33.9730   52.6010 N.am  196  LEU196     -0.1979
     60  CA        67.9210  -33.7620   51.2840 C.3   196  LEU196      0.1596
     61  C         66.8130  -33.6190   50.2480 C.2   196  LEU196      0.2287
     62  O         66.9090  -32.7920   49.3450 O.2   196  LEU196     -0.2864
     63  CB        68.8900  -34.9070   50.9450 C.3   196  LEU196      0.0297
     64  CG        70.1120  -34.8970   51.8790 C.3   196  LEU196      0.0022
     65  CD1       70.9170  -36.1730   51.7640 C.3   196  LEU196      0.0001
     66  CD2       70.9840  -33.7000   51.5310 C.3   196  LEU196      0.0001
     67  N         65.3180  -30.1160   50.5990 N.3   199  LEU199     -0.1245
     68  CA        66.1770  -29.0710   50.0620 C.3   199  LEU199      0.1561
     69  C         66.1390  -29.0590   48.5330 C.2   199  LEU199      0.2260
     70  O         66.1180  -27.9920   47.9130 O.2   199  LEU199     -0.2867
     71  CB        67.6070  -29.2660   50.5840 C.3   199  LEU199      0.0270
     72  CG        68.7320  -28.3110   50.1870 C.3   199  LEU199      0.0019
     73  CD1       68.4410  -26.8890   50.6700 C.3   199  LEU199      0.0001
     74  CD2       70.0360  -28.8440   50.8050 C.3   199  LEU199      0.0001
     75  N         64.8550  -25.9550   46.2430 N.3   203  ILE203     -0.1245
     76  CA        65.6330  -25.3710   45.1630 C.3   203  ILE203      0.1561
     77  C         64.8920  -25.5410   43.8230 C.2   203  ILE203      0.2260
     78  O         64.7640  -24.5940   43.0340 O.2   203  ILE203     -0.2867
     79  CB        67.0460  -26.0300   45.0650 C.3   203  ILE203      0.0252
     80  CG1       67.8180  -25.8040   46.3760 C.3   203  ILE203      0.0019
     81  CG2       67.8230  -25.4500   43.8810 C.3   203  ILE203      0.0019
     82  CD1       69.1020  -26.5740   46.4830 C.3   203  ILE203      0.0001
@<TRIPOS>BOND
     1     1     2    1
     2     7     6    1
     3     5     2    1
     4     5     6    1
     5     2     3    1
     6     3     4    2
     7     6     8    1
     8    15     9    1
     9    15    14    1
    10    78    77    2
    11     9    10    1
    12    77    76    1
    13    81    79    1
    14    14    13    1
    15    16    17    1
    16    11    10    1
    17    11    12    2
    18    10    13    1
    19    79    76    1
    20    79    80    1
    21    76    75    1
    22    17    18    1
    23    17    20    1
    24    21    20    1
    25    21    23    1
    26    18    24   am
    27    18    19    2
    28    20    22    1
    29    80    82    1
    30    24    25    1
    31    26    25    1
    32    26    27    2
    33    31    32    1
    34    28    25    1
    35    28    29    1
    36    28    30    1
    37    70    69    2
    38    32    33    1
    39    32    35    1
    40    69    68    1
    41    33    34    2
    42    36    35    1
    43    35    37    1
    44    62    61    2
    45    38    39    1
    46    68    71    1
    47    68    67    1
    48    72    71    1
    49    72    73    1
    50    72    74    1
    51    61    60    1
    52    63    60    1
    53    63    64    1
    54    40    39    1
    55    40    41    2
    56    39    42    1
    57    60    59    1
    58    66    64    1
    59    65    64    1
    60    42    43    1
    61    59    55   am
    62    56    55    2
    63    43    45    1
    64    43    44    1
    65    55    54    1
    66    49    48    2
    67    54    53    1
    68    54    57    1
    69    48    47    1
    70    57    58    1
    71    51    50    1
    72    47    50    1
    73    47    46    1
    74    50    52    1
