@<TRIPOS>MOLECULE
tmp/1p49A02.pdb
 97 93 0 0 0
SMALL
GASTEIGER

@<TRIPOS>ATOM
      1  N         80.8060   -1.4120   13.4740 N.3    18  GLY18      -0.1210
      2  CA        81.1460   -1.9740   12.1790 C.3    18  GLY18       0.1956
      3  C         79.9950   -2.6770   11.4810 C.2    18  GLY18       0.2611
      4  O         80.2150   -3.6170   10.7170 O.2    18  GLY18      -0.2717
      5  N         78.7690   -2.2260   11.7190 N.am   19  ASP19      -0.1973
      6  CA        77.6110   -2.8590   11.0990 C.3    19  ASP19       0.1709
      7  C         76.8500   -2.0300   10.0670 C.2    19  ASP19       0.2293
      8  O         76.3080   -2.5820    9.1040 O.2    19  ASP19      -0.2864
      9  CB        76.6270   -3.3150   12.1760 C.3    19  ASP19       0.1436
     10  CG        77.0570   -4.5970   12.8540 C.2    19  ASP19       0.3671
     11  OD1       78.0680   -4.5850   13.5890 O.co2  19  ASP19      -0.2456
     12  OD2       76.3790   -5.6240   12.6430 O.co2  19  ASP19      -0.2456
     13  N         81.6210    0.9420    6.9380 N.3    24  GLY24      -0.1210
     14  CA        82.5490   -0.0990    6.5160 C.3    24  GLY24       0.1956
     15  C         81.8360   -1.3260    5.9790 C.2    24  GLY24       0.2612
     16  O         82.1820   -1.8520    4.9200 O.2    24  GLY24      -0.2717
     17  N         80.8370   -1.7850    6.7220 N.am   25  ASN25      -0.1960
     18  CA        80.0440   -2.9410    6.3310 C.3    25  ASN25       0.1819
     19  C         79.6360   -2.7550    4.8720 C.2    25  ASN25       0.2621
     20  O         79.3610   -1.6310    4.4420 O.2    25  ASN25      -0.2715
     21  CB        78.7960   -3.0110    7.2140 C.3    25  ASN25       0.1195
     22  CG        78.2000   -4.3990    7.2920 C.2    25  ASN25       0.2630
     23  OD1       77.5960   -4.9000    6.3420 O.2    25  ASN25      -0.2716
     24  ND2       78.3690   -5.0110    8.4590 N.am   25  ASN25      -0.0877
     25  N         79.6020   -3.8480    4.1150 N.am   26  LYS26      -0.1963
     26  CA        79.2110   -3.7750    2.7100 C.3    26  LYS26       0.1728
     27  C         78.0240   -4.6710    2.3890 C.2    26  LYS26       0.2617
     28  O         77.3940   -4.5300    1.3390 O.2    26  LYS26      -0.2715
     29  CB        80.3910   -4.1440    1.8100 C.3    26  LYS26       0.0311
     30  CG        81.5580   -3.1810    1.9220 C.3    26  LYS26       0.0038
     31  CD        82.6120   -3.4470    0.8670 C.3    26  LYS26       0.0206
     32  CE        83.6630   -2.3450    0.8690 C.3    26  LYS26       0.1093
     33  NZ        83.0710   -1.0040    0.5850 N.3    26  LYS26      -0.1314
     34  N         77.6990   -5.5650    3.3150 N.am   27  THR27      -0.1937
     35  CA        76.6080   -6.5090    3.1130 C.3    27  THR27       0.2028
     36  C         75.2680   -6.1570    3.7590 C.2    27  THR27       0.2642
     37  O         74.2130   -6.5730    3.2660 O.2    27  THR27      -0.2714
     38  CB        77.0310   -7.8950    3.6020 C.3    27  THR27       0.1808
     39  OG1       78.4250   -7.8650    3.9470 O.3    27  THR27      -0.2208
     40  CG2       76.7850   -8.9470    2.5080 C.3    27  THR27       0.0379
     41  N         75.3070   -5.3990    4.8550 N.am   28  ILE28      -0.1977
     42  CA        74.0900   -5.0050    5.5680 C.3    28  ILE28       0.1596
     43  C         73.3340   -3.8710    4.8630 C.2    28  ILE28       0.2287
     44  O         73.9430   -2.9490    4.3330 O.2    28  ILE28      -0.2864
     45  CB        74.4240   -4.5500    7.0140 C.3    28  ILE28       0.0276
     46  CG1       75.1570   -5.6650    7.7750 C.3    28  ILE28       0.0022
     47  CG2       73.1410   -4.1830    7.7510 C.3    28  ILE28       0.0022
     48  CD1       74.2890   -6.8590    8.1180 C.3    28  ILE28       0.0001
     49  N         72.5630  -10.7140    6.3430 N.3   281  GLN281     -0.1231
     50  CA        73.9890  -10.9680    6.1780 C.3   281  GLN281      0.1698
     51  C         74.4500  -12.0740    7.1000 C.2   281  GLN281      0.2592
     52  O         74.5450  -13.2300    6.6900 O.2   281  GLN281     -0.2718
     53  CB        74.8100   -9.7060    6.4670 C.3   281  GLN281      0.0381
     54  CG        76.2570   -9.8080    5.9970 C.3   281  GLN281      0.0905
     55  CD        77.2760   -9.9960    7.1130 C.2   281  GLN281      0.2608
     56  OE1       77.1130  -10.8330    7.9970 O.2   281  GLN281     -0.2717
     57  NE2       78.3540   -9.2210    7.0550 N.am  281  GLN281     -0.0878
     58  N         74.7360  -11.7020    8.3450 N.am  282  HIS282     -0.1976
     59  CA        75.2050  -12.6370    9.3600 C.3   282  HIS282      0.1656
     60  C         74.0300  -13.1250   10.1950 C.2   282  HIS282      0.2291
     61  O         74.0940  -13.1180   11.4290 O.2   282  HIS282     -0.2864
     62  CB        76.2390  -11.9620   10.2740 C.3   282  HIS282      0.0771
     63  CG        77.3500  -12.8650   10.7180 C.ar  282  HIS282      0.0820
     64  ND1       78.4680  -12.3960   11.3760 N.ar  282  HIS282     -0.2267
     65  CD2       77.5290  -14.2020   10.5810 C.ar  282  HIS282      0.1154
     66  CE1       79.2890  -13.4030   11.6220 C.ar  282  HIS282      0.1986
     67  NE2       78.7430  -14.5100   11.1490 N.ar  282  HIS282     -0.2212
     68  N         70.2840  -11.3130   13.0260 N.3   285  TYR285     -0.1227
     69  CA        70.7780  -10.0170   13.4740 C.3   285  TYR285      0.1736
     70  C         70.6470   -9.0170   12.3230 C.2   285  TYR285      0.2596
     71  O         70.0530   -7.9370   12.4780 O.2   285  TYR285     -0.2718
     72  CB        72.2370  -10.1510   13.9080 C.3   285  TYR285      0.0548
     73  CG        72.8980   -8.8670   14.3510 C.ar  285  TYR285     -0.0200
     74  CD1       73.4090   -7.9660   13.4190 C.ar  285  TYR285     -0.0009
     75  CD2       73.0450   -8.5670   15.7070 C.ar  285  TYR285     -0.0009
     76  CE1       74.0570   -6.7960   13.8280 C.ar  285  TYR285      0.0417
     77  CE2       73.6900   -7.4080   16.1240 C.ar  285  TYR285      0.0417
     78  CZ        74.1950   -6.5240   15.1810 C.ar  285  TYR285      0.1957
     79  OH        74.8450   -5.3750   15.5870 O.3   285  TYR285     -0.2866
     80  N         71.1990   -9.3880   11.1690 N.am  286  GLY286     -0.1957
     81  CA        71.1160   -8.5350   10.0000 C.3   286  GLY286      0.1869
     82  C         69.6560   -8.2940    9.6790 C.2   286  GLY286      0.2309
     83  O         69.2580   -7.1870    9.3180 O.2   286  GLY286     -0.2863
     84  N         76.5800   -9.0690   16.5880 N.3   336  GLY336     -0.1210
     85  CA        76.9440   -8.0020   15.6720 C.3   336  GLY336      0.1956
     86  C         78.4480   -7.9000   15.5210 C.2   336  GLY336      0.2612
     87  O         79.1770   -8.7230   16.0750 O.2   336  GLY336     -0.2717
     88  N         78.9140   -6.8870   14.7900 N.am  337  SER337     -0.1952
     89  CA        80.3450   -6.6870   14.5530 C.3   337  SER337      0.1924
     90  C         80.8230   -5.2690   14.8380 C.2   337  SER337      0.2314
     91  O         80.0860   -4.3100   14.6440 O.2   337  SER337     -0.2863
     92  CB        80.6840   -7.0500   13.1030 C.3   337  SER337      0.2116
     93  OG        79.7580   -6.4790   12.1920 O.3   337  SER337     -0.2180
     94  N         83.8540   -4.1060   13.5280 N.3   339  GLY339     -0.1225
     95  CA        84.9470   -3.8780   12.5980 C.3   339  GLY339      0.1811
     96  C         86.3370   -4.0160   13.2040 C.2   339  GLY339      0.2280
     97  O         86.5140   -4.5820   14.2820 O.2   339  GLY339     -0.2866
@<TRIPOS>BOND
     1    33    32    1
     2    31    32    1
     3    31    30    1
     4    28    27    2
     5    29    30    1
     6    29    26    1
     7    27    26    1
     8    27    34   am
     9    40    38    1
    10    26    25    1
    11    35    34    1
    12    35    38    1
    13    35    36    1
    14    37    36    2
    15    38    39    1
    16    36    41   am
    17    25    19   am
    18    44    43    2
    19    20    19    2
    20    41    42    1
    21    43    42    1
    22    19    18    1
    23    16    15    2
    24    42    45    1
    25    15    14    1
    26    15    17   am
    27    54    53    1
    28    54    55    1
    29    50    49    1
    30    50    53    1
    31    50    51    1
    32    18    17    1
    33    18    21    1
    34    23    22    2
    35    14    13    1
    36    52    51    2
    37    45    47    1
    38    45    46    1
    39    57    55   am
    40    51    58   am
    41    55    56    2
    42    21    22    1
    43    22    24   am
    44    46    48    1
    45    58    59    1
    46     8     7    2
    47    83    82    2
    48    59    60    1
    49    59    62    1
    50    82    81    1
    51    81    80    1
    52     7     6    1
    53    60    61    2
    54    62    63    1
    55    65    63   ar
    56    65    67   ar
    57     4     3    2
    58    63    64   ar
    59     6     5    1
    60     6     9    1
    61    67    66   ar
    62    80    70   am
    63    64    66   ar
    64     3     5   am
    65     3     2    1
    66     9    10    1
    67     2     1    1
    68    93    92    1
    69    70    71    2
    70    70    69    1
    71    95    96    1
    72    95    94    1
    73    12    10   ar
    74    10    11   ar
    75    68    69    1
    76    92    89    1
    77    96    97    2
    78    74    76   ar
    79    74    73   ar
    80    69    72    1
    81    76    78   ar
    82    72    73    1
    83    73    75   ar
    84    89    88    1
    85    89    90    1
    86    91    90    2
    87    88    86   am
    88    78    79    1
    89    78    77   ar
    90    86    85    1
    91    86    87    2
    92    85    84    1
    93    75    77   ar
