@<TRIPOS>MOLECULE
tmp/1p4aC00.pdb
 141 138 0 0 0
SMALL
GASTEIGER

@<TRIPOS>ATOM
      1  N         32.7970   94.6030   26.3760 N.3   101  TYR101     -0.1241
      2  CA        31.8240   94.8280   25.3060 C.3   101  TYR101      0.1605
      3  C         31.5360   96.3200   25.1200 C.2   101  TYR101      0.2264
      4  O         31.8470   97.1310   25.9990 O.2   101  TYR101     -0.2867
      5  CB        30.5280   94.0650   25.6030 C.3   101  TYR101      0.0534
      6  CG        30.6100   92.5920   25.2780 C.ar  101  TYR101     -0.0201
      7  CD1       31.2670   91.7020   26.1280 C.ar  101  TYR101     -0.0009
      8  CD2       30.0430   92.0880   24.1120 C.ar  101  TYR101     -0.0009
      9  CE1       31.3510   90.3450   25.8250 C.ar  101  TYR101      0.0417
     10  CE2       30.1180   90.7410   23.8010 C.ar  101  TYR101      0.0417
     11  CZ        30.7730   89.8750   24.6570 C.ar  101  TYR101      0.1957
     12  OH        30.8410   88.5390   24.3350 O.3   101  TYR101     -0.2866
     13  N         22.9980   85.2490   13.1370 N.3   136  VAL136     -0.1231
     14  CA        22.4010   84.6100   14.2840 C.3   136  VAL136      0.1692
     15  C         21.6040   85.6860   15.0220 C.2   136  VAL136      0.2592
     16  O         22.0650   86.8160   15.1710 O.2   136  VAL136     -0.2718
     17  CB        23.5070   84.0280   15.2150 C.3   136  VAL136      0.0266
     18  CG1       22.9040   83.3650   16.4520 C.3   136  VAL136      0.0020
     19  CG2       24.3230   83.0180   14.4610 C.3   136  VAL136      0.0020
     20  N         20.3970   85.3380   15.4430 N.am  137  ALA137     -0.1966
     21  CA        19.6070   86.2030   16.3060 C.3   137  ALA137      0.1728
     22  C         20.4780   86.6570   17.4790 C.2   137  ALA137      0.2617
     23  O         21.2830   85.8800   17.9990 O.2   137  ALA137     -0.2715
     24  CB        18.3720   85.4450   16.8010 C.3   137  ALA137      0.0334
     25  N         20.3240   87.8960   17.9280 N.am  138  THR138     -0.1937
     26  CA        19.2430   88.7840   17.5470 C.3   138  THR138      0.2028
     27  C         19.7920   90.1130   17.0400 C.2   138  THR138      0.2642
     28  O         19.3080   90.6630   16.0450 O.2   138  THR138     -0.2714
     29  CB        18.3770   89.0440   18.7930 C.3   138  THR138      0.1808
     30  OG1       17.4730   87.9490   18.9920 O.3   138  THR138     -0.2208
     31  CG2       17.4660   90.2460   18.5940 C.3   138  THR138      0.0379
     32  N         20.8160   90.6190   17.7280 N.am  139  LYS139     -0.1963
     33  CA        21.3190   91.9720   17.5020 C.3   139  LYS139      0.1728
     34  C         21.7900   92.2410   16.0840 C.2   139  LYS139      0.2616
     35  O         21.5910   93.3380   15.5600 O.2   139  LYS139     -0.2715
     36  CB        22.4300   92.3100   18.5000 C.3   139  LYS139      0.0311
     37  CG        21.9040   92.8110   19.8410 C.3   139  LYS139      0.0038
     38  CD        22.9380   92.6320   20.9370 C.3   139  LYS139      0.0206
     39  CE        22.2710   92.4980   22.3020 C.3   139  LYS139      0.1093
     40  NZ        22.6970   93.5700   23.2490 N.3   139  LYS139     -0.1314
     41  N         22.4130   91.2450   15.4650 N.am  140  GLY140     -0.1955
     42  CA        22.9100   91.3890   14.1120 C.3   140  GLY140      0.1869
     43  C         21.8950   91.3240   12.9650 C.2   140  GLY140      0.2309
     44  O         22.2680   91.5110   11.8070 O.2   140  GLY140     -0.2863
     45  N         19.6360   81.1680   18.0050 N.3   160  LYS160     -0.1245
     46  CA        20.6410   81.0100   19.0520 C.3   160  LYS160      0.1561
     47  C         19.9910   80.1550   20.1350 C.2   160  LYS160      0.2260
     48  O         20.6590   79.6050   21.0130 O.2   160  LYS160     -0.2867
     49  CB        21.0850   82.3750   19.5980 C.3   160  LYS160      0.0271
     50  CG        20.4730   82.7520   20.9380 C.3   160  LYS160      0.0035
     51  CD        20.6820   84.2240   21.2700 C.3   160  LYS160      0.0206
     52  CE        22.1240   84.5090   21.6730 C.3   160  LYS160      0.1093
     53  NZ        22.2660   84.8880   23.1130 N.3   160  LYS160     -0.1314
     54  N         29.9800   81.2690   22.7030 N.3   173  SER173     -0.1202
     55  CA        30.0960   82.6850   22.3720 C.3   173  SER173      0.2020
     56  C         30.9410   83.3790   23.4270 C.2   173  SER173      0.2619
     57  O         31.3000   82.7760   24.4370 O.2   173  SER173     -0.2717
     58  CB        28.7180   83.3440   22.2250 C.3   173  SER173      0.2103
     59  OG        28.1160   83.5720   23.4810 O.3   173  SER173     -0.2182
     60  N         31.2640   84.6440   23.1990 N.am  174  GLY174     -0.1942
     61  CA        32.0950   85.3780   24.1380 C.3   174  GLY174      0.2014
     62  C         31.4110   85.7720   25.4430 C.2   174  GLY174      0.2639
     63  O         32.0910   86.0460   26.4360 O.2   174  GLY174     -0.2714
     64  N         30.0770   85.8000   25.4470 N.am  175  SER175     -0.1949
     65  CA        29.3170   86.2950   26.6000 C.3   175  SER175      0.1924
     66  C         29.1410   85.2880   27.7390 C.2   175  SER175      0.2314
     67  O         28.7000   85.6550   28.8290 O.2   175  SER175     -0.2863
     68  CB        27.9520   86.8430   26.1670 C.3   175  SER175      0.2116
     69  OG        27.3350   86.0140   25.1950 O.3   175  SER175     -0.2180
     70  N         27.9690   89.5600   11.0670 N.3   199  ASP199     -0.1225
     71  CA        27.8980   89.6650   12.5170 C.3   199  ASP199      0.1805
     72  C         28.1480   91.0920   12.9680 C.2   199  ASP199      0.2598
     73  O         28.8570   91.8380   12.3070 O.2   199  ASP199     -0.2718
     74  CB        28.9290   88.7410   13.1600 C.3   199  ASP199      0.1424
     75  CG        28.4800   88.2150   14.5110 C.2   199  ASP199      0.3668
     76  OD1       27.2550   88.2670   14.7740 O.co2 199  ASP199     -0.2456
     77  OD2       29.2830   87.7190   15.3550 O.co2 199  ASP199     -0.2456
     78  N         27.5700   91.4680   14.1050 N.am  200  ASP200     -0.1960
     79  CA        27.7620   92.8090   14.6400 C.3   200  ASP200      0.1840
     80  C         29.1060   92.9240   15.3630 C.2   200  ASP200      0.2622
     81  O         29.8690   93.8550   15.1320 O.2   200  ASP200     -0.2715
     82  CB        26.6080   93.1910   15.5770 C.3   200  ASP200      0.1450
     83  CG        26.3830   92.1570   16.6790 C.2   200  ASP200      0.3671
     84  OD1       26.4540   92.5250   17.8620 O.co2 200  ASP200     -0.2456
     85  OD2       26.1470   90.9510   16.4600 O.co2 200  ASP200     -0.2456
     86  N         29.3920   91.9630   16.2290 N.am  201  PHE201     -0.1960
     87  CA        30.5630   92.0350   17.0870 C.3   201  PHE201      0.1771
     88  C         31.1860   90.6600   17.2470 C.2   201  PHE201      0.2619
     89  O         30.5730   89.7630   17.8130 O.2   201  PHE201     -0.2715
     90  CB        30.1680   92.5950   18.4510 C.3   201  PHE201      0.0574
     91  CG        31.2710   92.5540   19.4710 C.ar  201  PHE201     -0.0200
     92  CD1       32.2930   93.4850   19.4450 C.ar  201  PHE201     -0.0042
     93  CD2       31.2800   91.5880   20.4670 C.ar  201  PHE201     -0.0042
     94  CE1       33.3060   93.4580   20.3810 C.ar  201  PHE201     -0.0003
     95  CE2       32.2990   91.5520   21.4090 C.ar  201  PHE201     -0.0003
     96  CZ        33.3100   92.4950   21.3650 C.ar  201  PHE201     -0.0000
     97  N         32.4020   90.5010   16.7330 N.am  202  MET202     -0.1963
     98  CA        33.1460   89.2650   16.8900 C.3   202  MET202      0.1736
     99  C         34.1120   89.3860   18.0740 C.2   202  MET202      0.2616
    100  O         35.1160   90.0830   17.9950 O.2   202  MET202     -0.2715
    101  CB        33.8980   88.9210   15.6060 C.3   202  MET202      0.0427
    102  CG        34.7200   87.6600   15.6880 C.3   202  MET202      0.0599
    103  SD        35.4430   87.1460   14.1040 S.3   202  MET202     -0.1393
    104  CE        36.4400   88.5360   13.7320 C.3   202  MET202      0.0692
    105  N         33.7850   88.7120   19.1730 N.am  203  LYS203     -0.1963
    106  CA        34.6260   88.7020   20.3670 C.3   203  LYS203      0.1728
    107  C         35.7570   87.7070   20.1850 C.2   203  LYS203      0.2616
    108  O         36.9010   88.0950   19.9850 O.2   203  LYS203     -0.2715
    109  CB        33.8050   88.3630   21.6130 C.3   203  LYS203      0.0311
    110  CG        34.6040   88.3310   22.9220 C.3   203  LYS203      0.0038
    111  CD        34.9600   89.7330   23.3930 C.3   203  LYS203      0.0206
    112  CE        34.8930   89.8530   24.9090 C.3   203  LYS203      0.1093
    113  NZ        36.2460   89.7760   25.5090 N.3   203  LYS203     -0.1314
    114  N         35.4250   86.4230   20.2140 N.am  204  ALA204     -0.1963
    115  CA        36.4250   85.3700   20.1090 C.3   204  ALA204      0.1728
    116  C         36.2870   84.5560   18.8130 C.2   204  ALA204      0.2617
    117  O         37.2010   83.8190   18.4320 O.2   204  ALA204     -0.2715
    118  CB        36.3350   84.4540   21.3250 C.3   204  ALA204      0.0334
    119  N         35.1420   84.6760   18.1480 N.am  205  GLY205     -0.1940
    120  CA        34.9320   83.9940   16.8830 C.3   205  GLY205      0.2014
    121  C         34.1420   82.6900   16.9490 C.2   205  GLY205      0.2639
    122  O         33.9150   82.0540   15.9230 O.2   205  GLY205     -0.2714
    123  N         33.7400   82.2760   18.1480 N.am  206  GLY206     -0.1939
    124  CA        32.9680   81.0540   18.3060 C.3   206  GLY206      0.2014
    125  C         31.6480   81.0660   17.5450 C.2   206  GLY206      0.2640
    126  O         31.2700   80.0620   16.9390 O.2   206  GLY206     -0.2714
    127  N         30.9530   82.2010   17.5620 N.am  207  THR207     -0.1936
    128  CA        29.6670   82.3410   16.8730 C.3   207  THR207      0.2028
    129  C         29.7960   82.2140   15.3570 C.2   207  THR207      0.2642
    130  O         29.0260   81.4980   14.6990 O.2   207  THR207     -0.2714
    131  CB        29.0300   83.6980   17.2230 C.3   207  THR207      0.1808
    132  OG1       28.7900   83.7360   18.6240 O.3   207  THR207     -0.2208
    133  CG2       27.6110   83.8280   16.6220 C.3   207  THR207      0.0379
    134  N         30.7700   82.9070   14.7940 N.am  208  ILE208     -0.1977
    135  CA        30.9630   82.8340   13.3560 C.3   208  ILE208      0.1596
    136  C         31.3960   81.4200   12.9790 C.2   208  ILE208      0.2287
    137  O         30.9500   80.8670   11.9730 O.2   208  ILE208     -0.2864
    138  CB        31.9690   83.9030   12.8900 C.3   208  ILE208      0.0276
    139  CG1       31.2310   85.2040   12.5840 C.3   208  ILE208      0.0022
    140  CG2       32.7390   83.4370   11.6490 C.3   208  ILE208      0.0022
    141  CD1       32.0470   86.4250   12.8970 C.3   208  ILE208      0.0001
@<TRIPOS>BOND
     1    70    71    1
     2   140   138    1
     3    44    43    2
     4   137   136    2
     5    73    72    2
     6    71    72    1
     7    71    74    1
     8   139   138    1
     9   139   141    1
    10   138   135    1
    11    43    42    1
    12    72    78   am
    13   136   135    1
    14    13    14    1
    15    74    75    1
    16   135   134    1
    17   104   103    1
    18   103   102    1
    19    78    79    1
    20    42    41    1
    21    14    15    1
    22    14    17    1
    23    19    17    1
    24    75    76   ar
    25    75    77   ar
    26    79    80    1
    27    79    82    1
    28   130   129    2
    29   134   129   am
    30    15    16    2
    31    15    20   am
    32    81    80    2
    33    17    18    1
    34   129   128    1
    35    80    86   am
    36    20    21    1
    37    41    34   am
    38    35    34    2
    39    82    83    1
    40   101   102    1
    41   101    98    1
    42   122   121    2
    43    28    27    2
    44    34    33    1
    45    86    87    1
    46    21    24    1
    47    21    22    1
    48    85    83   ar
    49   133   131    1
    50    83    84   ar
    51    97    98    1
    52    97    88   am
    53   128   131    1
    54   128   127    1
    55   120   121    1
    56   120   119    1
    57    98    99    1
    58   126   125    2
    59   121   123   am
    60    27    26    1
    61    27    32   am
    62    87    88    1
    63    87    90    1
    64   131   132    1
    65    88    89    2
    66    22    25   am
    67    22    23    2
    68    33    32    1
    69    33    36    1
    70   125   127   am
    71   125   124    1
    72    26    25    1
    73    26    29    1
    74   100    99    2
    75    45    46    1
    76    99   105   am
    77   123   124    1
    78   119   116   am
    79   117   116    2
    80    90    91    1
    81    36    37    1
    82    31    29    1
    83    29    30    1
    84   116   115    1
    85    46    49    1
    86    46    47    1
    87   105   106    1
    88    92    91   ar
    89    92    94   ar
    90    91    93   ar
    91    49    50    1
    92    37    38    1
    93   108   107    2
    94   115   114    1
    95   115   118    1
    96    47    48    2
    97   107   114   am
    98   107   106    1
    99   106   109    1
   100    94    96   ar
   101    93    95   ar
   102    38    39    1
   103    50    51    1
   104    51    52    1
   105    96    95   ar
   106   109   110    1
   107    52    53    1
   108    58    55    1
   109    58    59    1
   110    39    40    1
   111    55    54    1
   112    55    56    1
   113   110   111    1
   114    60    56   am
   115    60    61    1
   116   111   112    1
   117    56    57    2
   118    10     8   ar
   119    10    11   ar
   120     8     6   ar
   121    61    62    1
   122    12    11    1
   123    11     9   ar
   124   112   113    1
   125     3     2    1
   126     3     4    2
   127    69    68    1
   128     6     5    1
   129     6     7   ar
   130     2     5    1
   131     2     1    1
   132    62    64   am
   133    62    63    2
   134    64    65    1
   135     9     7   ar
   136    68    65    1
   137    65    66    1
   138    66    67    2
