@<TRIPOS>MOLECULE
tmp/1p4bB00.pdb
 123 120 0 0 0
SMALL
GASTEIGER

@<TRIPOS>ATOM
      1  N         21.8990   34.2560   64.8770 N.3     2  VAL2       -0.1245
      2  CA        22.0780   33.6930   66.2100 C.3     2  VAL2        0.1561
      3  C         23.3120   32.7960   66.2070 C.2     2  VAL2        0.2260
      4  O         23.5930   32.1300   65.2140 O.2     2  VAL2       -0.2867
      5  CB        20.8280   32.8710   66.6370 C.3     2  VAL2        0.0252
      6  CG1       19.7250   33.0450   65.6090 C.3     2  VAL2        0.0019
      7  CG2       21.1740   31.3930   66.8080 C.3     2  VAL2        0.0019
      8  N         18.9340   35.3910   71.0910 N.3    27  PHE27      -0.1241
      9  CA        17.6440   35.0530   71.6810 C.3    27  PHE27       0.1605
     10  C         17.7820   34.5970   73.1420 C.2    27  PHE27       0.2264
     11  O         18.8480   34.1460   73.5630 O.2    27  PHE27      -0.2867
     12  CB        16.9470   33.9760   70.8470 C.3    27  PHE27       0.0534
     13  CG        17.5710   32.6120   70.9560 C.ar   27  PHE27      -0.0203
     14  CD1       16.8630   31.5630   71.5350 C.ar   27  PHE27      -0.0042
     15  CD2       18.8470   32.3650   70.4620 C.ar   27  PHE27      -0.0042
     16  CE1       17.4110   30.2930   71.6180 C.ar   27  PHE27      -0.0003
     17  CE2       19.4030   31.0990   70.5400 C.ar   27  PHE27      -0.0003
     18  CZ        18.6830   30.0600   71.1180 C.ar   27  PHE27      -0.0000
     19  N         12.4750   32.1980   76.3130 N.3    31  ASP31      -0.1225
     20  CA        11.5020   32.0350   75.2300 C.3    31  ASP31       0.1805
     21  C         11.5410   30.7010   74.4890 C.2    31  ASP31       0.2598
     22  O         10.5020   30.0850   74.2710 O.2    31  ASP31      -0.2718
     23  CB        11.6780   33.1440   74.1860 C.3    31  ASP31       0.1424
     24  CG        11.2400   34.5020   74.6870 C.2    31  ASP31       0.3668
     25  OD1       10.0440   34.6620   75.0140 O.co2  31  ASP31      -0.2456
     26  OD2       12.0940   35.4150   74.7460 O.co2  31  ASP31      -0.2456
     27  N         12.7370   30.2570   74.1080 N.am   32  TYR32      -0.1962
     28  CA        12.8740   29.0350   73.3200 C.3    32  TYR32       0.1771
     29  C         13.8000   27.9580   73.8650 C.2    32  TYR32       0.2620
     30  O         14.6870   28.2210   74.6850 O.2    32  TYR32      -0.2715
     31  CB        13.3190   29.4170   71.9050 C.3    32  TYR32       0.0574
     32  CG        12.4540   30.4940   71.2960 C.ar   32  TYR32      -0.0198
     33  CD1       11.1480   30.2190   70.9010 C.ar   32  TYR32      -0.0009
     34  CD2       12.9330   31.7950   71.1320 C.ar   32  TYR32      -0.0009
     35  CE1       10.3350   31.2080   70.3520 C.ar   32  TYR32       0.0417
     36  CE2       12.1220   32.8030   70.5800 C.ar   32  TYR32       0.0417
     37  CZ        10.8210   32.4950   70.1900 C.ar   32  TYR32       0.1957
     38  OH         9.9920   33.4480   69.6270 O.3    32  TYR32      -0.2866
     39  N         13.5980   26.7440   73.3590 N.am   33  GLY33      -0.1954
     40  CA        14.3770   25.6030   73.8020 C.3    33  GLY33       0.1869
     41  C         15.6480   25.2850   73.0450 C.2    33  GLY33       0.2309
     42  O         15.8330   25.6970   71.8990 O.2    33  GLY33      -0.2863
     43  N         13.3180   23.2250   77.2740 N.3    52  TRP52      -0.1227
     44  CA        12.4640   24.3160   76.8420 C.3    52  TRP52       0.1737
     45  C         12.6440   25.5980   77.6450 C.2    52  TRP52       0.2596
     46  O         13.3530   25.6210   78.6520 O.2    52  TRP52      -0.2718
     47  CB        11.0040   23.8660   76.8920 C.3    52  TRP52       0.0564
     48  CG        10.7540   22.6640   76.0450 C.ar   52  TRP52       0.0003
     49  CD1       10.4870   21.3950   76.4730 C.ar   52  TRP52       0.0946
     50  CD2       10.7760   22.6100   74.6150 C.ar   52  TRP52       0.0152
     51  NE1       10.3390   20.5520   75.3970 N.ar   52  TRP52      -0.2442
     52  CE2       10.5110   21.2710   74.2430 C.ar   52  TRP52       0.0810
     53  CE3       10.9950   23.5640   73.6090 C.ar   52  TRP52       0.0012
     54  CZ2       10.4580   20.8610   72.9060 C.ar   52  TRP52       0.0191
     55  CZ3       10.9440   23.1590   72.2840 C.ar   52  TRP52       0.0001
     56  CH2       10.6770   21.8170   71.9450 C.ar   52  TRP52       0.0015
     57  N         12.0040   26.6630   77.1710 N.am   53  GLY53      -0.1942
     58  CA        12.0880   27.9550   77.8240 C.3    53  GLY53       0.2014
     59  C         11.6420   27.9140   79.2720 C.2    53  GLY53       0.2638
     60  O         12.3570   28.3890   80.1480 O.2    53  GLY53      -0.2714
     61  N         10.4680   27.3350   79.5170 N.am   54  ASP54      -0.1971
     62  CA         9.9050   27.2220   80.8610 C.3    54  ASP54       0.1709
     63  C         10.6290   26.2190   81.7750 C.2    54  ASP54       0.2293
     64  O         10.1270   25.8560   82.8360 O.2    54  ASP54      -0.2864
     65  CB         8.4150   26.8650   80.7700 C.3    54  ASP54       0.1436
     66  CG         8.1600   25.5560   80.0250 C.2    54  ASP54       0.3671
     67  OD1        6.9820   25.2740   79.7040 O.co2  54  ASP54      -0.2456
     68  OD2        9.1220   24.8020   79.7570 O.co2  54  ASP54      -0.2456
     69  N         11.1050   23.0100   81.4430 N.3    56  ILE56      -0.1245
     70  CA        10.7810   21.5920   81.2600 C.3    56  ILE56       0.1561
     71  C         11.8130   20.8890   80.3830 C.2    56  ILE56       0.2260
     72  O         12.3220   21.4550   79.4140 O.2    56  ILE56      -0.2867
     73  CB         9.3880   21.3960   80.6380 C.3    56  ILE56       0.0252
     74  CG1        8.3210   21.9290   81.6000 C.3    56  ILE56       0.0019
     75  CG2        9.1550   19.9210   80.3530 C.3    56  ILE56       0.0019
     76  CD1        6.8940   21.5790   81.2220 C.3    56  ILE56       0.0001
     77  N         13.0870   17.2090   78.2660 N.3    58  ASP58      -0.1239
     78  CA        12.6970   15.9720   77.6120 C.3    58  ASP58       0.1674
     79  C         13.9840   15.2540   77.2610 C.2    58  ASP58       0.2266
     80  O         14.8970   15.8520   76.6970 O.2    58  ASP58      -0.2867
     81  CB        11.8830   16.2730   76.3580 C.3    58  ASP58       0.1410
     82  CG        10.4600   16.6880   76.6750 C.2    58  ASP58       0.3668
     83  OD1        9.9870   17.6880   76.0940 O.co2  58  ASP58      -0.2456
     84  OD2        9.8050   16.0090   77.4940 O.co2  58  ASP58      -0.2456
     85  N         19.2690   24.5820   68.0860 N.3    97  THR97      -0.1203
     86  CA        18.0230   25.2780   68.3830 C.3    97  THR97       0.1994
     87  C         16.7860   24.4060   68.2980 C.2    97  THR97       0.2618
     88  O         16.8680   23.2150   68.0070 O.2    97  THR97      -0.2717
     89  CB        17.8400   26.5000   67.4770 C.3    97  THR97       0.1784
     90  OG1       17.8620   26.0930   66.1040 O.3    97  THR97      -0.2211
     91  CG2       18.9640   27.4980   67.7260 C.3    97  THR97       0.0376
     92  N         15.6390   25.0270   68.5540 N.am   98  GLY98      -0.1942
     93  CA        14.3590   24.3410   68.5730 C.3    98  GLY98       0.2014
     94  C         13.9300   23.4250   67.4460 C.2    98  GLY98       0.2638
     95  O         13.2660   22.4220   67.6970 O.2    98  GLY98      -0.2714
     96  N         14.2650   23.7660   66.2090 N.am   99  LEU99      -0.1977
     97  CA        13.8810   22.9270   65.0800 C.3    99  LEU99       0.1596
     98  C         15.1240   22.5920   64.2770 C.2    99  LEU99       0.2287
     99  O         15.0790   22.4040   63.0620 O.2    99  LEU99      -0.2864
    100  CB        12.8290   23.6400   64.2230 C.3    99  LEU99       0.0297
    101  CG        11.4480   23.7070   64.8950 C.3    99  LEU99       0.0022
    102  CD1       10.6120   24.8450   64.3340 C.3    99  LEU99       0.0001
    103  CD2       10.7340   22.3760   64.7060 C.3    99  LEU99       0.0001
    104  N         17.4860   24.3970   63.4030 N.3   101  ASP101     -0.1225
    105  CA        17.8710   25.4200   62.4400 C.3   101  ASP101      0.1805
    106  C         19.2740   26.0020   62.6110 C.2   101  ASP101      0.2597
    107  O         19.9570   26.2470   61.6190 O.2   101  ASP101     -0.2718
    108  CB        16.8350   26.5470   62.4290 C.3   101  ASP101      0.1424
    109  CG        16.2550   26.8310   63.8050 C.2   101  ASP101      0.3668
    110  OD1       16.3700   27.9880   64.2600 O.co2 101  ASP101     -0.2456
    111  OD2       15.6760   25.9070   64.4250 O.co2 101  ASP101     -0.2456
    112  N         19.7080   26.2370   63.8490 N.am  102  TYR102     -0.1976
    113  CA        21.0520   26.7750   64.0840 C.3   102  TYR102      0.1639
    114  C         21.9230   25.7930   64.8550 C.2   102  TYR102      0.2290
    115  O         21.4570   25.1630   65.7950 O.2   102  TYR102     -0.2864
    116  CB        20.9830   28.1040   64.8370 C.3   102  TYR102      0.0560
    117  CG        20.3680   29.2030   64.0180 C.ar  102  TYR102     -0.0198
    118  CD1       18.9860   29.2960   63.8670 C.ar  102  TYR102     -0.0009
    119  CD2       21.1690   30.1190   63.3380 C.ar  102  TYR102     -0.0009
    120  CE1       18.4120   30.2690   63.0530 C.ar  102  TYR102      0.0417
    121  CE2       20.6070   31.0990   62.5200 C.ar  102  TYR102      0.0417
    122  CZ        19.2280   31.1670   62.3820 C.ar  102  TYR102      0.1957
    123  OH        18.6670   32.1250   61.5710 O.3   102  TYR102     -0.2866
@<TRIPOS>BOND
     1   123   122    1
     2   107   106    2
     3   122   121   ar
     4   122   120   ar
     5   108   105    1
     6   108   109    1
     7   105   106    1
     8   105   104    1
     9   121   119   ar
    10   106   112   am
    11   120   118   ar
    12    99    98    2
    13   119   117   ar
    14   109   110   ar
    15   109   111   ar
    16   112   113    1
    17   118   117   ar
    18   117   116    1
    19   113   116    1
    20   113   114    1
    21   100   101    1
    22   100    97    1
    23    98    97    1
    24   102   101    1
    25   103   101    1
    26   114   115    2
    27     1     2    1
    28    97    96    1
    29     4     3    2
    30     6     5    1
    31    90    89    1
    32     3     2    1
    33    96    94   am
    34     2     5    1
    35     5     7    1
    36    94    95    2
    37    94    93    1
    38    89    91    1
    39    89    86    1
    40    88    87    2
    41    85    86    1
    42    87    86    1
    43    87    92   am
    44    92    93    1
    45    38    37    1
    46    37    35   ar
    47    37    36   ar
    48    35    33   ar
    49    15    17   ar
    50    15    13   ar
    51    17    18   ar
    52    36    34   ar
    53    12    13    1
    54    12     9    1
    55    33    32   ar
    56    13    14   ar
    57     8     9    1
    58    18    16   ar
    59    34    32   ar
    60    32    31    1
    61    14    16   ar
    62     9    10    1
    63    42    41    2
    64    31    28    1
    65    56    55   ar
    66    56    54   ar
    67    55    53   ar
    68    54    52   ar
    69    41    40    1
    70    10    11    2
    71    28    29    1
    72    28    27    1
    73    39    40    1
    74    39    29   am
    75    53    50   ar
    76    29    30    2
    77    27    21   am
    78    23    24    1
    79    23    20    1
    80    52    50   ar
    81    52    51   ar
    82    22    21    2
    83    21    20    1
    84    50    48   ar
    85    24    26   ar
    86    24    25   ar
    87    20    19    1
    88    51    49   ar
    89    48    49   ar
    90    48    47    1
    91    83    82   ar
    92    81    82    1
    93    81    78    1
    94    82    84   ar
    95    80    79    2
    96    44    47    1
    97    44    43    1
    98    44    45    1
    99    57    45   am
   100    57    58    1
   101    79    78    1
   102    78    77    1
   103    45    46    2
   104    58    59    1
   105    59    61   am
   106    59    60    2
   107    72    71    2
   108    61    62    1
   109    67    66   ar
   110    68    66   ar
   111    66    65    1
   112    75    73    1
   113    71    70    1
   114    73    70    1
   115    73    74    1
   116    65    62    1
   117    62    63    1
   118    76    74    1
   119    70    69    1
   120    63    64    2
