@<TRIPOS>MOLECULE
tmp/1p4bA00.pdb
 87 88 0 0 0
SMALL
GASTEIGER

@<TRIPOS>ATOM
      1  N          6.1220   17.7100   63.2570 N.3    35  TYR35      -0.1241
      2  CA         6.9760   18.8640   62.9880 C.3    35  TYR35       0.1605
      3  C          8.2450   18.5410   62.1990 C.2    35  TYR35       0.2264
      4  O          9.3430   18.9570   62.5830 O.2    35  TYR35      -0.2867
      5  CB         7.3360   19.5480   64.3120 C.3    35  TYR35       0.0534
      6  CG         6.1190   20.0250   65.0580 C.ar   35  TYR35      -0.0201
      7  CD1        5.4130   19.1680   65.8970 C.ar   35  TYR35      -0.0009
      8  CD2        5.6250   21.3120   64.8680 C.ar   35  TYR35      -0.0009
      9  CE1        4.2410   19.5780   66.5240 C.ar   35  TYR35       0.0417
     10  CE2        4.4510   21.7350   65.4890 C.ar   35  TYR35       0.0417
     11  CZ         3.7650   20.8600   66.3170 C.ar   35  TYR35       0.1957
     12  OH         2.6070   21.2620   66.9410 O.3    35  TYR35      -0.2866
     13  N         12.1430   23.5080   58.9840 N.3    52  GLY52      -0.1210
     14  CA        11.7010   23.1890   60.3320 C.3    52  GLY52       0.1956
     15  C         10.1920   23.2260   60.4050 C.2    52  GLY52       0.2612
     16  O          9.5470   24.1330   59.8760 O.2    52  GLY52      -0.2717
     17  N          9.6170   22.2250   61.0520 N.am   53  GLY53      -0.1956
     18  CA         8.1780   22.1920   61.1820 C.3    53  GLY53       0.1869
     19  C          7.4270   22.0260   59.8760 C.2    53  GLY53       0.2309
     20  O          6.5000   22.7830   59.5840 O.2    53  GLY53      -0.2863
     21  N          7.2210   22.8870   56.6460 N.3    55  ASN55      -0.1225
     22  CA         7.4580   23.7490   55.4890 C.3    55  ASN55       0.1785
     23  C          7.9540   25.1660   55.7670 C.2    55  ASN55       0.2597
     24  O          7.5570   26.1110   55.0880 O.2    55  ASN55      -0.2718
     25  CB         6.1660   23.8380   54.6780 C.3    55  ASN55       0.1169
     26  CG         4.9760   24.2280   55.5260 C.2    55  ASN55       0.2627
     27  OD1        3.8530   23.7770   55.2820 O.2    55  ASN55      -0.2716
     28  ND2        5.2110   25.0550   56.5330 N.am   55  ASN55      -0.0877
     29  N          8.8260   25.3270   56.7520 N.am   56  ASN56      -0.1960
     30  CA         9.3340   26.6460   57.0740 C.3    56  ASN56       0.1819
     31  C         10.8280   26.6710   56.8110 C.2    56  ASN56       0.2621
     32  O         11.5560   25.7890   57.2580 O.2    56  ASN56      -0.2715
     33  CB         9.0560   26.9760   58.5450 C.3    56  ASN56       0.1195
     34  CG         7.5950   26.7730   58.9310 C.2    56  ASN56       0.2630
     35  OD1        6.7210   27.5670   58.5750 O.2    56  ASN56      -0.2716
     36  ND2        7.3250   25.6920   59.6580 N.am   56  ASN56      -0.0877
     37  N         11.2860   27.6760   56.0790 N.am   57  ARG57      -0.1963
     38  CA        12.7060   27.7880   55.7800 C.3    57  ARG57       0.1729
     39  C         13.4280   28.4770   56.9280 C.2    57  ARG57       0.2616
     40  O         13.0190   29.5560   57.3690 O.2    57  ARG57      -0.2715
     41  CB        12.9320   28.5970   54.4920 C.3    57  ARG57       0.0348
     42  CG        13.3040   27.7760   53.2540 C.3    57  ARG57       0.0492
     43  CD        13.6580   28.6850   52.0600 C.3    57  ARG57       0.2205
     44  NE        12.5400   29.5550   51.7030 N.pl3  57  ARG57      -0.0865
     45  CZ        11.4480   29.1450   51.0630 C.cat  57  ARG57       0.5346
     46  NH1       10.4730   30.0050   50.7940 N.pl3  57  ARG57       0.1354
     47  NH2       11.3410   27.8840   50.6670 N.pl3  57  ARG57       0.1354
     48  N         14.4980   27.8530   57.4110 N.am   58  ALA58      -0.1964
     49  CA        15.2840   28.4390   58.4890 C.3    58  ALA58       0.1713
     50  C         15.9770   29.6630   57.9050 C.2    58  ALA58       0.2458
     51  O         16.9150   29.5360   57.1250 O.2    58  ALA58      -0.2730
     52  CB        16.3210   27.4400   58.9920 C.3    58  ALA58       0.0333
     53  N         15.5250   30.8660   58.2820 N.am   59  PRO59      -0.2727
     54  CA        16.0900   32.1320   57.7990 C.3    59  PRO59       0.1402
     55  C         17.5310   32.0640   57.3000 C.2    59  PRO59       0.2269
     56  O         18.4250   31.5930   58.0050 O.2    59  PRO59      -0.2865
     57  CB        15.9220   33.0740   58.9990 C.3    59  PRO59       0.0296
     58  CG        15.5370   32.1540   60.1690 C.3    59  PRO59       0.0237
     59  CD        14.7280   31.0970   59.4940 C.3    59  PRO59       0.0939
     60  N          9.0420   14.4620   65.3520 N.3    94  TRP94      -0.1241
     61  CA         8.7770   14.6380   66.7710 C.3    94  TRP94       0.1605
     62  C          7.6370   13.7460   67.2150 C.2    94  TRP94       0.2264
     63  O          6.5810   13.7370   66.5810 O.2    94  TRP94      -0.2867
     64  CB         8.4210   16.0960   67.0490 C.3    94  TRP94       0.0550
     65  CG         7.9590   16.3660   68.4420 C.ar   94  TRP94       0.0003
     66  CD1        6.6710   16.5820   68.8510 C.ar   94  TRP94       0.0946
     67  CD2        8.7830   16.5190   69.6050 C.ar   94  TRP94       0.0152
     68  NE1        6.6430   16.8730   70.1940 N.ar   94  TRP94      -0.2442
     69  CE2        7.9230   16.8400   70.6850 C.ar   94  TRP94       0.0810
     70  CE3       10.1620   16.4160   69.8440 C.ar   94  TRP94       0.0012
     71  CZ2        8.3970   17.0680   71.9840 C.ar   94  TRP94       0.0191
     72  CZ3       10.6410   16.6410   71.1390 C.ar   94  TRP94       0.0001
     73  CH2        9.7550   16.9630   72.1930 C.ar   94  TRP94       0.0015
     74  N         12.5070   13.5560   69.7150 N.3    99  TRP99      -0.1241
     75  CA        12.8270   13.5540   68.2890 C.3    99  TRP99       0.1605
     76  C         13.5040   12.2580   67.8670 C.2    99  TRP99       0.2264
     77  O         14.2320   11.6480   68.6520 O.2    99  TRP99      -0.2867
     78  CB        13.8050   14.6770   67.9380 C.3    99  TRP99       0.0550
     79  CG        13.2880   16.0630   68.0310 C.ar   99  TRP99       0.0003
     80  CD1       13.5140   16.9540   69.0400 C.ar   99  TRP99       0.0946
     81  CD2       12.5010   16.7530   67.0510 C.ar   99  TRP99       0.0152
     82  NE1       12.9210   18.1590   68.7480 N.ar   99  TRP99      -0.2442
     83  CE2       12.2910   18.0650   67.5340 C.ar   99  TRP99       0.0810
     84  CE3       11.9510   16.3900   65.8130 C.ar   99  TRP99       0.0012
     85  CZ2       11.5540   19.0210   66.8200 C.ar   99  TRP99       0.0191
     86  CZ3       11.2140   17.3430   65.1010 C.ar   99  TRP99       0.0001
     87  CH2       11.0240   18.6430   65.6110 C.ar   99  TRP99       0.0015
@<TRIPOS>BOND
     1    47    45    1
     2    46    45    1
     3    45    44    2
     4    44    43    1
     5    43    42    1
     6    42    41    1
     7    41    38    1
     8    25    22    1
     9    25    26    1
    10    24    23    2
    11    27    26    2
    12    22    23    1
    13    22    21    1
    14    26    28   am
    15    23    29   am
    16    38    37    1
    17    38    39    1
    18    37    31   am
    19    29    30    1
    20    31    30    1
    21    31    32    2
    22    39    40    2
    23    39    48   am
    24    30    33    1
    25    51    50    2
    26    55    54    1
    27    55    56    2
    28    48    49    1
    29    54    53    1
    30    54    57    1
    31    50    53   am
    32    50    49    1
    33    53    59    1
    34    49    52    1
    35    33    34    1
    36    35    34    2
    37    34    36   am
    38    13    14    1
    39    57    58    1
    40    59    58    1
    41    20    19    2
    42    16    15    2
    43    19    18    1
    44    14    15    1
    45    15    17   am
    46    17    18    1
    47     3     4    2
    48     3     2    1
    49     2     1    1
    50     2     5    1
    51     5     6    1
    52     8     6   ar
    53     8    10   ar
    54     6     7   ar
    55    86    87   ar
    56    86    84   ar
    57    60    61    1
    58    10    11   ar
    59    87    85   ar
    60    84    81   ar
    61     7     9   ar
    62    11     9   ar
    63    11    12    1
    64    63    62    2
    65    61    64    1
    66    61    62    1
    67    85    83   ar
    68    64    65    1
    69    81    83   ar
    70    81    79   ar
    71    83    82   ar
    72    76    75    1
    73    76    77    2
    74    78    79    1
    75    78    75    1
    76    79    80   ar
    77    75    74    1
    78    65    66   ar
    79    65    67   ar
    80    82    80   ar
    81    66    68   ar
    82    67    70   ar
    83    67    69   ar
    84    70    72   ar
    85    68    69   ar
    86    69    71   ar
    87    72    73   ar
    88    71    73   ar
