@<TRIPOS>MOLECULE
tmp/1p4fA00.pdb
 116 106 0 0 0
SMALL
GASTEIGER

@<TRIPOS>ATOM
      1  N         17.6870   32.0510   13.3030 N.3    18  LEU18      -0.1231
      2  CA        18.3060   30.8110   13.7960 C.3    18  LEU18       0.1693
      3  C         19.6680   31.0010   14.4690 C.2    18  LEU18       0.2593
      4  O         20.0680   30.2120   15.3290 O.2    18  LEU18      -0.2718
      5  CB        18.4260   29.7800   12.6750 C.3    18  LEU18       0.0284
      6  CG        17.1290   29.1900   12.1270 C.3    18  LEU18       0.0019
      7  CD1       17.4230   28.3740   10.8740 C.3    18  LEU18       0.0001
      8  CD2       16.3970   28.3270   13.1720 C.3    18  LEU18       0.0001
      9  N         20.3810   32.0460   14.0810 N.am   19  GLY19      -0.1942
     10  CA        21.7070   32.2980   14.6280 C.3    19  GLY19       0.2014
     11  C         22.4060   33.3200   13.7750 C.2    19  GLY19       0.2640
     12  O         21.8110   33.8760   12.8540 O.2    19  GLY19      -0.2714
     13  N         23.6770   33.5640   14.0750 N.am   20  SER20      -0.1935
     14  CA        24.4280   34.5880   13.3810 C.3    20  SER20       0.2055
     15  C         25.9380   34.3360   13.4020 C.2    20  SER20       0.2643
     16  O         26.4300   33.4600   14.1210 O.2    20  SER20      -0.2714
     17  CB        24.1020   35.9510   13.9970 C.3    20  SER20       0.2130
     18  OG        24.4700   35.9810   15.3620 O.3    20  SER20      -0.2179
     19  N         26.6530   35.1730   12.6500 N.am   21  GLY21      -0.1954
     20  CA        28.0980   35.3880   12.8010 C.3    21  GLY21       0.1869
     21  C         28.3860   36.8810   12.9320 C.2    21  GLY21       0.2309
     22  O         27.4780   37.6770   13.1940 O.2    21  GLY21      -0.2863
     23  N         21.3020   34.3070   10.0900 N.3    26  VAL26      -0.1245
     24  CA        20.6380   33.1400    9.5230 C.3    26  VAL26       0.1561
     25  C         19.1840   33.1220    9.9580 C.2    26  VAL26       0.2260
     26  O         18.8810   33.2590   11.1490 O.2    26  VAL26      -0.2867
     27  CB        21.2850   31.8430   10.0100 C.3    26  VAL26       0.0252
     28  CG1       20.6300   30.6410    9.3040 C.3    26  VAL26       0.0019
     29  CG2       22.8050   31.8830    9.7870 C.3    26  VAL26       0.0019
     30  N         17.4500   27.0750    5.8050 N.3    39  ALA39      -0.1245
     31  CA        18.0240   28.1790    6.5630 C.3    39  ALA39       0.1562
     32  C         18.7150   29.1000    5.5740 C.2    39  ALA39       0.2260
     33  O         19.5940   28.6490    4.8280 O.2    39  ALA39      -0.2867
     34  CB        19.0410   27.6640    7.5900 C.3    39  ALA39       0.0290
     35  N         21.2200   32.0450    5.0360 N.3    41  LYS41      -0.1245
     36  CA        22.3180   32.7570    5.7050 C.3    41  LYS41       0.1561
     37  C         22.6780   33.9870    4.8820 C.2    41  LYS41       0.2260
     38  O         23.2030   33.8600    3.7850 O.2    41  LYS41      -0.2867
     39  CB        23.5430   31.8560    5.8320 C.3    41  LYS41       0.0271
     40  CG        24.7350   32.5070    6.5190 C.3    41  LYS41       0.0035
     41  CD        25.7600   31.4660    6.8660 C.3    41  LYS41       0.0206
     42  CE        26.9540   32.0900    7.5710 C.3    41  LYS41       0.1093
     43  NZ        28.0290   31.0540    7.7130 N.3    41  LYS41      -0.1314
     44  N         26.4640   20.1410    6.8690 N.3    76  ILE76      -0.1245
     45  CA        25.3820   20.9480    6.3050 C.3    76  ILE76       0.1561
     46  C         25.4640   20.9850    4.7770 C.2    76  ILE76       0.2260
     47  O         26.5560   21.0830    4.2140 O.2    76  ILE76      -0.2867
     48  CB        25.3830   22.3880    6.9200 C.3    76  ILE76       0.0252
     49  CG1       24.0570   23.0980    6.6510 C.3    76  ILE76       0.0019
     50  CG2       26.5580   23.2340    6.4210 C.3    76  ILE76       0.0019
     51  CD1       23.0180   22.7280    7.6400 C.3    76  ILE76       0.0001
     52  N         20.6590   27.1280    2.8340 N.3    92  LEU92      -0.1231
     53  CA        21.2490   25.9200    3.4250 C.3    92  LEU92       0.1693
     54  C         20.1980   24.9940    4.0060 C.2    92  LEU92       0.2591
     55  O         19.0640   25.4000    4.2720 O.2    92  LEU92      -0.2718
     56  CB        22.2210   26.3070    4.5410 C.3    92  LEU92       0.0284
     57  CG        23.3660   27.2700    4.2400 C.3    92  LEU92       0.0019
     58  CD1       23.8520   27.8840    5.5480 C.3    92  LEU92       0.0001
     59  CD2       24.5070   26.5600    3.5120 C.3    92  LEU92       0.0001
     60  N         20.5880   23.7390    4.2090 N.am   93  GLU93      -0.1979
     61  CA        19.7540   22.7750    4.9000 C.3    93  GLU93       0.1602
     62  C         19.3180   23.3450    6.2500 C.2    93  GLU93       0.2287
     63  O         20.1260   23.9510    6.9650 O.2    93  GLU93      -0.2864
     64  CB        20.5570   21.5050    5.1060 C.3    93  GLU93       0.0415
     65  CG        19.9740   20.4570    6.0300 C.3    93  GLU93       0.1163
     66  CD        20.8440   19.2050    6.0190 C.2    93  GLU93       0.3649
     67  OE1       22.0570   19.3010    5.7070 O.co2  93  GLU93      -0.2457
     68  OE2       20.3290   18.1180    6.3090 O.co2  93  GLU93      -0.2457
     69  N         18.7740   23.1700    9.8710 N.3    95  VAL95      -0.1245
     70  CA        19.2110   22.4270   11.0360 C.3    95  VAL95       0.1561
     71  C         18.5380   23.1630   12.1880 C.2    95  VAL95       0.2260
     72  O         18.9440   24.2760   12.5360 O.2    95  VAL95      -0.2867
     73  CB        20.7550   22.4060   11.1580 C.3    95  VAL95       0.0252
     74  CG1       21.1860   21.4790   12.2780 C.3    95  VAL95       0.0019
     75  CG2       21.3820   21.9240    9.8580 C.3    95  VAL95       0.0019
     76  N         29.6100   25.5790   19.2350 N.3   135  GLU135     -0.1231
     77  CA        28.6730   26.4600   18.5270 C.3   135  GLU135      0.1699
     78  C         28.4470   26.0540   17.0600 C.2   135  GLU135      0.2592
     79  O         27.4480   26.4370   16.4540 O.2   135  GLU135     -0.2718
     80  CB        29.1550   27.9250   18.5820 C.3   135  GLU135      0.0402
     81  CG        29.4320   28.4850   19.9740 C.3   135  GLU135      0.1161
     82  CD        30.8770   28.3110   20.4210 C.2   135  GLU135      0.3649
     83  OE1       31.3350   27.1590   20.5500 O.co2 135  GLU135     -0.2457
     84  OE2       31.5550   29.3440   20.6590 O.co2 135  GLU135     -0.2457
     85  N         29.3810   25.2870   16.4960 N.am  136  ASN136     -0.1974
     86  CA        29.3070   24.8550   15.0890 C.3   136  ASN136      0.1688
     87  C         28.9560   23.3660   14.9260 C.2   136  ASN136      0.2292
     88  O         29.0690   22.8050   13.8290 O.2   136  ASN136     -0.2864
     89  CB        30.6010   25.2090   14.3290 C.3   136  ASN136      0.1181
     90  CG        30.7310   26.6950   14.0670 C.2   136  ASN136      0.2629
     91  OD1       29.7390   27.4210   14.0510 O.2   136  ASN136     -0.2716
     92  ND2       31.9540   27.1570   13.8540 N.am  136  ASN136     -0.0877
     93  N         25.6870   21.3490   15.4080 N.3   138  MET138     -0.1245
     94  CA        24.2440   21.5320   15.5620 C.3   138  MET138      0.1570
     95  C         23.5100   20.2070   15.5100 C.2   138  MET138      0.2261
     96  O         23.9940   19.2500   14.9330 O.2   138  MET138     -0.2867
     97  CB        23.6970   22.3860   14.4250 C.3   138  MET138      0.0387
     98  CG        24.3400   23.7500   14.2580 C.3   138  MET138      0.0595
     99  SD        23.7500   24.8950   15.5100 S.3   138  MET138     -0.1393
    100  CE        22.0660   25.1250   14.9900 C.3   138  MET138      0.0692
    101  N         28.4500   22.8400   10.9310 N.3   150  ILE150     -0.1231
    102  CA        28.0660   24.0380   10.1740 C.3   150  ILE150      0.1692
    103  C         29.2040   25.0600   10.0840 C.2   150  ILE150      0.2592
    104  O         30.3070   24.8280   10.5970 O.2   150  ILE150     -0.2718
    105  CB        26.7870   24.7060   10.8010 C.3   150  ILE150      0.0266
    106  CG1       27.0810   25.2570   12.2070 C.3   150  ILE150      0.0019
    107  CG2       25.6310   23.7220   10.8160 C.3   150  ILE150      0.0020
    108  CD1       26.3100   26.5000   12.5980 C.3   150  ILE150      0.0001
    109  N         28.9150   26.1870    9.4360 N.am  151  ASP151     -0.1974
    110  CA        29.8280   27.3200    9.3210 C.3   151  ASP151      0.1709
    111  C         31.1990   27.0190    8.7130 C.2   151  ASP151      0.2293
    112  O         32.1920   26.8730    9.4320 O.2   151  ASP151     -0.2864
    113  CB        29.9950   28.0330   10.6670 C.3   151  ASP151      0.1436
    114  CG        30.4950   29.4650   10.4990 C.2   151  ASP151      0.3671
    115  OD1       31.0620   29.7760    9.4280 O.co2 151  ASP151     -0.2456
    116  OD2       30.3540   30.3450   11.3740 O.co2 151  ASP151     -0.2456
@<TRIPOS>BOND
     1    52    53    1
     2    53    54    1
     3    53    56    1
     4    59    57    1
     5    38    37    2
     6    54    60   am
     7    54    55    2
     8    60    61    1
     9    47    46    2
    10    57    56    1
    11    57    58    1
    12    46    45    1
    13    33    32    2
    14    37    36    1
    15    61    64    1
    16    61    62    1
    17    35    36    1
    18    64    65    1
    19    32    31    1
    20    36    39    1
    21    67    66   ar
    22    30    31    1
    23    39    40    1
    24    66    65    1
    25    66    68   ar
    26    62    63    2
    27    45    44    1
    28    45    48    1
    29    50    48    1
    30    40    41    1
    31    31    34    1
    32    49    48    1
    33    49    51    1
    34    41    42    1
    35    42    43    1
    36   111   110    1
    37   111   112    2
    38    28    27    1
    39   110   109    1
    40   110   113    1
    41   115   114   ar
    42   109   103   am
    43    24    25    1
    44    24    27    1
    45    24    23    1
    46    29    27    1
    47    75    73    1
    48    69    70    1
    49    25    26    2
    50   103   102    1
    51   103   104    2
    52   102   105    1
    53   102   101    1
    54   114   113    1
    55   114   116   ar
    56   105   107    1
    57   105   106    1
    58     7     6    1
    59    70    73    1
    60    70    71    1
    61    73    74    1
    62     6     5    1
    63     6     8    1
    64    71    72    2
    65   106   108    1
    66    19    20    1
    67    19    15   am
    68     5     2    1
    69    20    21    1
    70    12    11    2
    71    21    22    2
    72     1     2    1
    73    14    15    1
    74    14    17    1
    75    14    13    1
    76    15    16    2
    77    11    13   am
    78    11    10    1
    79     2     3    1
    80    88    87    2
    81    92    90   am
    82    17    18    1
    83    91    90    2
    84    90    89    1
    85     9     3   am
    86     9    10    1
    87    98    97    1
    88    98    99    1
    89    89    86    1
    90    97    94    1
    91     3     4    2
    92    87    86    1
    93    96    95    2
    94   100    99    1
    95    86    85    1
    96    93    94    1
    97    95    94    1
    98    79    78    2
    99    85    78   am
   100    78    77    1
   101    77    80    1
   102    77    76    1
   103    80    81    1
   104    81    82    1
   105    82    83   ar
   106    82    84   ar
