@<TRIPOS>MOLECULE
tmp/1p4gA00.pdb
 149 142 0 0 0
SMALL
GASTEIGER

@<TRIPOS>ATOM
      1  N         28.7050   25.3030   32.9920 N.3   123  GLY123     -0.1210
      2  CA        28.0800   25.0790   31.7100 C.3   123  GLY123      0.1956
      3  C         28.3080   23.6810   31.1870 C.2   123  GLY123      0.2612
      4  O         27.9620   22.7010   31.8470 O.2   123  GLY123     -0.2717
      5  N         28.9140   23.5970   30.0080 N.am  124  GLY124     -0.1942
      6  CA        29.1480   22.3190   29.3590 C.3   124  GLY124      0.2014
      7  C         29.7910   21.2230   30.1760 C.2   124  GLY124      0.2638
      8  O         29.2380   20.1310   30.3070 O.2   124  GLY124     -0.2714
      9  N         30.9630   21.5160   30.7250 N.am  125  LEU125     -0.1977
     10  CA        31.7040   20.5470   31.5100 C.3   125  LEU125      0.1596
     11  C         30.8880   20.0270   32.6880 C.2   125  LEU125      0.2287
     12  O         30.8290   18.8230   32.9220 O.2   125  LEU125     -0.2864
     13  CB        33.0180   21.1760   31.9850 C.3   125  LEU125      0.0297
     14  CG        33.9190   20.3630   32.9210 C.3   125  LEU125      0.0022
     15  CD1       35.3590   20.8500   32.8230 C.3   125  LEU125      0.0001
     16  CD2       33.4020   20.5010   34.3480 C.3   125  LEU125      0.0001
     17  N         27.9380   17.9570   31.4760 N.3   128  LEU128     -0.1245
     18  CA        28.4290   16.6940   30.9330 C.3   128  LEU128      0.1561
     19  C         28.5810   15.6780   32.0650 C.2   128  LEU128      0.2260
     20  O         28.2060   14.5120   31.9320 O.2   128  LEU128     -0.2867
     21  CB        29.7810   16.8890   30.2430 C.3   128  LEU128      0.0270
     22  CG        30.3100   15.6310   29.5370 C.3   128  LEU128      0.0019
     23  CD1       29.4780   15.3540   28.2890 C.3   128  LEU128      0.0001
     24  CD2       31.7780   15.8240   29.1620 C.3   128  LEU128      0.0001
     25  N         33.9970   30.1010   33.1160 N.3   266  ASP266     -0.1225
     26  CA        33.7570   29.0880   32.1120 C.3   266  ASP266      0.1805
     27  C         34.9000   29.1990   31.1070 C.2   266  ASP266      0.2597
     28  O         35.0900   30.2480   30.4940 O.2   266  ASP266     -0.2718
     29  CB        32.4180   29.3520   31.4270 C.3   266  ASP266      0.1424
     30  CG        32.0430   28.2680   30.4440 C.2   266  ASP266      0.3668
     31  OD1       31.5090   27.2300   30.8830 O.co2 266  ASP266     -0.2456
     32  OD2       32.2900   28.4480   29.2310 O.co2 266  ASP266     -0.2456
     33  N         35.6750   28.1300   30.9550 N.am  267  ASN267     -0.1974
     34  CA        36.7930   28.1370   30.0150 C.3   267  ASN267      0.1688
     35  C         37.7480   29.3000   30.2630 C.2   267  ASN267      0.2292
     36  O         38.1600   29.9850   29.3270 O.2   267  ASN267     -0.2864
     37  CB        36.2800   28.2060   28.5710 C.3   267  ASN267      0.1181
     38  CG        35.9450   26.8390   28.0030 C.2   267  ASN267      0.2629
     39  OD1       36.8290   26.0150   27.7860 O.2   267  ASN267     -0.2716
     40  ND2       34.6630   26.5920   27.7650 N.am  267  ASN267     -0.0877
     41  N         38.8730   17.0280   33.0760 N.3   313  ASP313     -0.1239
     42  CA        39.7470   18.1620   32.7960 C.3   313  ASP313      0.1674
     43  C         40.9080   18.0470   33.7840 C.2   313  ASP313      0.2266
     44  O         41.0650   17.0080   34.4250 O.2   313  ASP313     -0.2867
     45  CB        39.0210   19.4890   32.9880 C.3   313  ASP313      0.1410
     46  CG        39.6340   20.6090   32.1640 C.2   313  ASP313      0.3668
     47  OD1       40.8810   20.7120   32.1140 O.co2 313  ASP313     -0.2456
     48  OD2       38.8650   21.3920   31.5720 O.co2 313  ASP313     -0.2456
     49  N         41.3010   20.0080   36.4560 N.3   315  HIS315     -0.1241
     50  CA        40.9300   20.4840   37.7910 C.3   315  HIS315      0.1621
     51  C         41.3230   19.5160   38.9260 C.2   315  HIS315      0.2264
     52  O         41.7640   19.9540   39.9840 O.2   315  HIS315     -0.2867
     53  CB        39.4340   20.7980   37.8110 C.3   315  HIS315      0.0745
     54  CG        39.0120   21.6880   36.6840 C.ar  315  HIS315      0.0817
     55  ND1       37.7100   21.7860   36.2430 N.ar  315  HIS315     -0.2268
     56  CD2       39.7380   22.5200   35.8980 C.ar  315  HIS315      0.1154
     57  CE1       37.6530   22.6380   35.2340 C.ar  315  HIS315      0.1986
     58  NE2       38.8700   23.0980   35.0050 N.ar  315  HIS315     -0.2212
     59  N         39.0150   19.0870   27.6260 N.3   351  HIS351     -0.1226
     60  CA        37.7770   19.7100   27.1630 C.3   351  HIS351      0.1752
     61  C         37.9140   20.9460   26.2850 C.2   351  HIS351      0.2596
     62  O         36.9290   21.4030   25.7110 O.2   351  HIS351     -0.2718
     63  CB        36.9120   20.0760   28.3720 C.3   351  HIS351      0.0759
     64  CG        36.4010   18.8960   29.1360 C.ar  351  HIS351      0.0818
     65  ND1       35.2200   18.2600   28.8220 N.ar  351  HIS351     -0.2268
     66  CD2       36.9090   18.2400   30.2070 C.ar  351  HIS351      0.1154
     67  CE1       35.0190   17.2660   29.6690 C.ar  351  HIS351      0.1986
     68  NE2       36.0300   17.2320   30.5190 N.ar  351  HIS351     -0.2212
     69  N         39.1110   21.5040   26.1810 N.am  352  THR352     -0.1953
     70  CA        39.2720   22.6970   25.3660 C.3   352  THR352      0.1897
     71  C         40.7280   22.9660   25.0460 C.2   352  THR352      0.2313
     72  O         41.6170   22.5280   25.7710 O.2   352  THR352     -0.2863
     73  CB        38.6780   23.9370   26.0750 C.3   352  THR352      0.1794
     74  OG1       38.8260   25.0910   25.2360 O.3   352  THR352     -0.2208
     75  CG2       39.3880   24.1840   27.3960 C.3   352  THR352      0.0378
     76  N         36.9040   15.5090   23.2750 N.3   429  VAL429     -0.1245
     77  CA        35.4630   15.3210   23.4040 C.3   429  VAL429      0.1561
     78  C         34.6200   15.3860   22.1380 C.2   429  VAL429      0.2260
     79  O         33.3960   15.4510   22.2060 O.2   429  VAL429     -0.2867
     80  CB        34.9090   16.3050   24.4490 C.3   429  VAL429      0.0252
     81  CG1       35.4290   15.9200   25.8340 C.3   429  VAL429      0.0019
     82  CG2       35.3510   17.7210   24.1170 C.3   429  VAL429      0.0019
     83  N         31.2370   13.6550   23.0240 N.3   458  ASN458     -0.1240
     84  CA        30.2680   13.9180   24.0750 C.3   458  ASN458      0.1653
     85  C         28.8670   13.4730   23.6840 C.2   458  ASN458      0.2266
     86  O         28.5990   13.1380   22.5310 O.2   458  ASN458     -0.2867
     87  CB        30.2550   15.4170   24.4120 C.3   458  ASN458      0.1155
     88  CG        31.4650   15.8490   25.2450 C.2   458  ASN458      0.2627
     89  OD1       31.7090   17.0440   25.4420 O.2   458  ASN458     -0.2716
     90  ND2       32.2140   14.8790   25.7440 N.am  458  ASN458     -0.0877
     91  N         34.3780   33.5400   21.9210 N.3   547  TYR547     -0.1227
     92  CA        34.5330   32.4730   20.9410 C.3   547  TYR547      0.1736
     93  C         33.2030   31.8690   20.4980 C.2   547  TYR547      0.2595
     94  O         33.1110   31.3150   19.4000 O.2   547  TYR547     -0.2718
     95  CB        35.5100   31.3970   21.4540 C.3   547  TYR547      0.0548
     96  CG        34.9270   30.2800   22.2960 C.ar  547  TYR547     -0.0200
     97  CD1       34.3810   29.1450   21.6980 C.ar  547  TYR547     -0.0009
     98  CD2       34.9690   30.3360   23.6910 C.ar  547  TYR547     -0.0009
     99  CE1       33.9000   28.0940   22.4630 C.ar  547  TYR547      0.0417
    100  CE2       34.4890   29.2890   24.4670 C.ar  547  TYR547      0.0417
    101  CZ        33.9560   28.1720   23.8500 C.ar  547  TYR547      0.1957
    102  OH        33.4800   27.1260   24.6090 O.3   547  TYR547     -0.2866
    103  N         32.1780   31.9940   21.3390 N.am  548  LYS548     -0.1980
    104  CA        30.8430   31.4850   21.0220 C.3   548  LYS548      0.1596
    105  C         30.2230   32.4180   19.9860 C.2   548  LYS548      0.2287
    106  O         29.2460   32.0720   19.3180 O.2   548  LYS548     -0.2864
    107  CB        29.9480   31.4930   22.2570 C.3   548  LYS548      0.0298
    108  CG        30.5350   30.8530   23.4890 C.3   548  LYS548      0.0038
    109  CD        30.2890   29.3740   23.5190 C.3   548  LYS548      0.0206
    110  CE        30.3970   28.8520   24.9470 C.3   548  LYS548      0.1093
    111  NZ        30.1680   27.3830   24.9760 N.3   548  LYS548     -0.1314
    112  N         37.3520   26.3260   17.9010 N.3   645  THR645     -0.1203
    113  CA        37.3100   26.8210   19.2710 C.3   645  THR645      0.1994
    114  C         36.3590   26.0740   20.2140 C.2   645  THR645      0.2618
    115  O         36.6340   25.9650   21.4080 O.2   645  THR645     -0.2717
    116  CB        36.9700   28.3200   19.2780 C.3   645  THR645      0.1784
    117  OG1       35.6400   28.5150   18.7780 O.3   645  THR645     -0.2211
    118  CG2       37.9550   29.0800   18.3870 C.3   645  THR645      0.0376
    119  N         35.2470   25.5610   19.6930 N.am  646  GLU646     -0.1965
    120  CA        34.3000   24.8340   20.5360 C.3   646  GLU646      0.1733
    121  C         34.6860   23.3590   20.4670 C.2   646  GLU646      0.2616
    122  O         34.3980   22.6850   19.4850 O.2   646  GLU646     -0.2715
    123  CB        32.8660   25.0470   20.0260 C.3   646  GLU646      0.0429
    124  CG        31.7560   24.5700   20.9650 C.3   646  GLU646      0.1163
    125  CD        31.6600   25.3950   22.2330 C.2   646  GLU646      0.3649
    126  OE1       32.3740   25.0900   23.2140 O.co2 646  GLU646     -0.2457
    127  OE2       30.8770   26.3680   22.2450 O.co2 646  GLU646     -0.2457
    128  N         35.3550   22.8690   21.5070 N.am  647  ALA647     -0.1963
    129  CA        35.8060   21.4790   21.5440 C.3   647  ALA647      0.1728
    130  C         34.7380   20.5120   21.0520 C.2   647  ALA647      0.2617
    131  O         34.9850   19.6690   20.1830 O.2   647  ALA647     -0.2715
    132  CB        36.2330   21.1020   22.9590 C.3   647  ALA647      0.0334
    133  N         33.5450   20.6430   21.6120 N.am  648  SER648     -0.1936
    134  CA        32.4540   19.7740   21.2340 C.3   648  SER648      0.2055
    135  C         31.1320   20.4970   21.2530 C.2   648  SER648      0.2644
    136  O         30.4650   20.6280   20.2220 O.2   648  SER648     -0.2714
    137  CB        32.3790   18.5820   22.1900 C.3   648  SER648      0.2130
    138  OG        31.1400   17.9080   22.0600 O.3   648  SER648     -0.2179
    139  N         30.7750   20.9910   22.4320 N.am  649  GLY649     -0.1939
    140  CA        29.4960   21.6420   22.6070 C.3   649  GLY649      0.2014
    141  C         28.5420   20.5020   22.9340 C.2   649  GLY649      0.2639
    142  O         28.7960   19.3630   22.5430 O.2   649  GLY649     -0.2714
    143  N         27.4790   20.7800   23.6800 N.am  650  THR650     -0.1950
    144  CA        26.4940   19.7530   24.0070 C.3   650  THR650      0.1897
    145  C         25.1000   20.3310   23.8300 C.2   650  THR650      0.2313
    146  O         24.1310   19.5980   23.6090 O.2   650  THR650     -0.2863
    147  CB        26.6540   19.2260   25.4410 C.3   650  THR650      0.1794
    148  OG1       26.7560   20.3260   26.3530 O.3   650  THR650     -0.2208
    149  CG2       27.8830   18.3540   25.5390 C.3   650  THR650      0.0378
@<TRIPOS>BOND
     1   112   113    1
     2   118   116    1
     3   117   116    1
     4   113   116    1
     5   113   114    1
     6   106   105    2
     7    94    93    2
     8   122   121    2
     9   119   114   am
    10   119   120    1
    11   105   104    1
    12   123   120    1
    13   123   124    1
    14   131   130    2
    15   114   115    2
    16   136   135    2
    17   121   120    1
    18   121   128   am
    19    93    92    1
    20    93   103   am
    21    92    95    1
    22    92    91    1
    23   124   125    1
    24   104   103    1
    25   104   107    1
    26   130   129    1
    27   130   133   am
    28   134   135    1
    29   134   133    1
    30   134   137    1
    31   135   139   am
    32    95    96    1
    33   128   129    1
    34   129   132    1
    35    97    96   ar
    36    97    99   ar
    37   138   137    1
    38    78    79    2
    39    78    77    1
    40   125   127   ar
    41   125   126   ar
    42   107   108    1
    43    96    98   ar
    44   139   140    1
    45    99   101   ar
    46    86    85    2
    47   142   141    2
    48   140   141    1
    49   141   143   am
    50    83    84    1
    51    76    77    1
    52    77    80    1
    53   108   109    1
    54   109   110    1
    55   146   145    2
    56   143   144    1
    57    85    84    1
    58    98   100   ar
    59   145   144    1
    60   101   100   ar
    61   101   102    1
    62   144   147    1
    63    84    87    1
    64    82    80    1
    65    87    88    1
    66    80    81    1
    67   110   111    1
    68    71    70    1
    69    71    72    2
    70    74    73    1
    71    88    89    2
    72    88    90   am
    73    70    73    1
    74    70    69    1
    75   147   149    1
    76   147   148    1
    77    62    61    2
    78    73    75    1
    79    69    61   am
    80    61    60    1
    81    60    59    1
    82    60    63    1
    83    40    38   am
    84    39    38    2
    85    38    37    1
    86    23    22    1
    87    63    64    1
    88    37    34    1
    89    65    64   ar
    90    65    67   ar
    91    64    66   ar
    92    24    22    1
    93    32    30   ar
    94    36    35    2
    95     6     5    1
    96     6     7    1
    97    22    21    1
    98    67    68   ar
    99     5     3   am
   100    34    35    1
   101    34    33    1
   102     7     8    2
   103     7     9   am
   104    66    68   ar
   105    21    18    1
   106    30    31   ar
   107    30    29    1
   108    28    27    2
   109     9    10    1
   110    18    17    1
   111    18    19    1
   112    33    27   am
   113    27    26    1
   114     3     2    1
   115     3     4    2
   116    29    26    1
   117    10    13    1
   118    10    11    1
   119    48    46   ar
   120     2     1    1
   121    20    19    2
   122    13    14    1
   123    26    25    1
   124    47    46   ar
   125    46    45    1
   126    11    12    2
   127    42    45    1
   128    42    41    1
   129    42    43    1
   130    15    14    1
   131    14    16    1
   132    43    44    2
   133    58    57   ar
   134    58    56   ar
   135    57    55   ar
   136    56    54   ar
   137    55    54   ar
   138    49    50    1
   139    54    53    1
   140    50    53    1
   141    50    51    1
   142    51    52    2
