@<TRIPOS>MOLECULE
tmp/1p4hA00.pdb
 150 142 0 0 0
SMALL
GASTEIGER

@<TRIPOS>ATOM
      1  N         28.8570   23.5630   29.9950 N.3   124  GLY124     -0.1210
      2  CA        29.0730   22.2710   29.3700 C.3   124  GLY124      0.1956
      3  C         29.7930   21.2020   30.1660 C.2   124  GLY124      0.2611
      4  O         29.3220   20.0680   30.2530 O.2   124  GLY124     -0.2717
      5  N         30.9370   21.5560   30.7450 N.am  125  LEU125     -0.1979
      6  CA        31.7350   20.5940   31.4960 C.3   125  LEU125      0.1596
      7  C         30.9750   20.0460   32.7020 C.2   125  LEU125      0.2287
      8  O         30.9950   18.8410   32.9610 O.2   125  LEU125     -0.2864
      9  CB        33.0720   21.2360   31.9100 C.3   125  LEU125      0.0297
     10  CG        34.0290   20.4100   32.7830 C.3   125  LEU125      0.0022
     11  CD1       35.4850   20.8400   32.5920 C.3   125  LEU125      0.0001
     12  CD2       33.6050   20.5810   34.2260 C.3   125  LEU125      0.0001
     13  N         27.9800   17.9090   31.4690 N.3   128  LEU128     -0.1245
     14  CA        28.4830   16.6420   30.9300 C.3   128  LEU128      0.1561
     15  C         28.6530   15.6330   32.0600 C.2   128  LEU128      0.2260
     16  O         28.2840   14.4650   31.9350 O.2   128  LEU128     -0.2867
     17  CB        29.8300   16.8470   30.2330 C.3   128  LEU128      0.0270
     18  CG        30.3530   15.5940   29.5200 C.3   128  LEU128      0.0019
     19  CD1       29.5230   15.3410   28.2670 C.3   128  LEU128      0.0001
     20  CD2       31.8200   15.7660   29.1540 C.3   128  LEU128      0.0001
     21  N         33.9520   29.9890   33.0310 N.3   266  ASP266     -0.1225
     22  CA        33.6960   28.9860   32.0190 C.3   266  ASP266      0.1805
     23  C         34.8250   29.1150   31.0070 C.2   266  ASP266      0.2597
     24  O         34.9890   30.1660   30.3920 O.2   266  ASP266     -0.2718
     25  CB        32.3600   29.2670   31.3280 C.3   266  ASP266      0.1424
     26  CG        32.0150   28.2320   30.2670 C.2   266  ASP266      0.3668
     27  OD1       31.5270   27.1440   30.6350 O.co2 266  ASP266     -0.2456
     28  OD2       32.2350   28.5080   29.0640 O.co2 266  ASP266     -0.2456
     29  N         35.6250   28.0670   30.8590 N.am  267  ASN267     -0.1974
     30  CA        36.7100   28.0850   29.8880 C.3   267  ASN267      0.1688
     31  C         37.7060   29.2210   30.1080 C.2   267  ASN267      0.2292
     32  O         38.1140   29.8850   29.1530 O.2   267  ASN267     -0.2864
     33  CB        36.1220   28.1990   28.4800 C.3   267  ASN267      0.1181
     34  CG        36.5610   27.0740   27.5700 C.2   267  ASN267      0.2629
     35  OD1       37.7220   26.9970   27.1770 O.2   267  ASN267     -0.2716
     36  ND2       35.6310   26.1850   27.2340 N.am  267  ASN267     -0.0877
     37  N         38.9210   17.0380   32.9710 N.3   313  ASP313     -0.1239
     38  CA        39.8110   18.1550   32.6760 C.3   313  ASP313      0.1674
     39  C         40.9500   18.0680   33.6920 C.2   313  ASP313      0.2266
     40  O         41.0840   17.0600   34.3720 O.2   313  ASP313     -0.2867
     41  CB        39.0990   19.5040   32.7830 C.3   313  ASP313      0.1410
     42  CG        39.8050   20.5870   31.9800 C.2   313  ASP313      0.3668
     43  OD1       41.0200   20.7970   32.1930 O.co2 313  ASP313     -0.2456
     44  OD2       39.1510   21.2240   31.1310 O.co2 313  ASP313     -0.2456
     45  N         41.3260   20.0020   36.3810 N.3   315  HIS315     -0.1241
     46  CA        40.9450   20.4930   37.7050 C.3   315  HIS315      0.1621
     47  C         41.3320   19.5630   38.8540 C.2   315  HIS315      0.2264
     48  O         41.7680   20.0290   39.9020 O.2   315  HIS315     -0.2867
     49  CB        39.4500   20.8130   37.7320 C.3   315  HIS315      0.0745
     50  CG        39.0280   21.7260   36.6230 C.ar  315  HIS315      0.0817
     51  ND1       37.7160   21.8650   36.2250 N.ar  315  HIS315     -0.2268
     52  CD2       39.7570   22.5100   35.7940 C.ar  315  HIS315      0.1154
     53  CE1       37.6580   22.6910   35.1940 C.ar  315  HIS315      0.1986
     54  NE2       38.8840   23.0960   34.9130 N.ar  315  HIS315     -0.2212
     55  N         39.0790   19.2450   27.7110 N.3   351  HIS351     -0.1226
     56  CA        37.8520   19.9010   27.2690 C.3   351  HIS351      0.1752
     57  C         38.0140   21.2100   26.5070 C.2   351  HIS351      0.2596
     58  O         37.0220   21.8940   26.2490 O.2   351  HIS351     -0.2718
     59  CB        36.9510   20.1510   28.4750 C.3   351  HIS351      0.0759
     60  CG        36.4780   18.9050   29.1490 C.ar  351  HIS351      0.0818
     61  ND1       35.2880   18.2880   28.8260 N.ar  351  HIS351     -0.2268
     62  CD2       37.0310   18.1640   30.1380 C.ar  351  HIS351      0.1154
     63  CE1       35.1250   17.2240   29.5910 C.ar  351  HIS351      0.1986
     64  NE2       36.1710   17.1260   30.3970 N.ar  351  HIS351     -0.2212
     65  N         39.2400   21.5680   26.1450 N.am  352  THR352     -0.1953
     66  CA        39.4480   22.8140   25.4130 C.3   352  THR352      0.1897
     67  C         40.8830   23.0070   24.9510 C.2   352  THR352      0.2313
     68  O         41.8060   22.4160   25.5060 O.2   352  THR352     -0.2863
     69  CB        39.0700   24.0370   26.2690 C.3   352  THR352      0.1794
     70  OG1       39.1660   25.2250   25.4750 O.3   352  THR352     -0.2208
     71  CG2       40.0020   24.1580   27.4650 C.3   352  THR352      0.0378
     72  N         42.3550   29.0190   29.0550 N.3   357  ALA357     -0.1245
     73  CA        41.6370   28.0640   29.9110 C.3   357  ALA357      0.1562
     74  C         42.5570   26.9990   30.5100 C.2   357  ALA357      0.2260
     75  O         42.1760   26.2820   31.4370 O.2   357  ALA357     -0.2867
     76  CB        40.5220   27.3910   29.1220 C.3   357  ALA357      0.0290
     77  N         36.9250   15.5870   23.2420 N.3   429  VAL429     -0.1245
     78  CA        35.4920   15.3800   23.3750 C.3   429  VAL429      0.1561
     79  C         34.6620   15.4110   22.1010 C.2   429  VAL429      0.2260
     80  O         33.4340   15.4330   22.1500 O.2   429  VAL429     -0.2867
     81  CB        34.9340   16.3680   24.4000 C.3   429  VAL429      0.0252
     82  CG1       35.4030   15.9540   25.8000 C.3   429  VAL429      0.0019
     83  CG2       35.4260   17.7770   24.0830 C.3   429  VAL429      0.0019
     84  N         31.3060   13.7560   22.9660 N.3   458  ASN458     -0.1240
     85  CA        30.3470   14.0210   24.0290 C.3   458  ASN458      0.1653
     86  C         28.9570   13.5370   23.6590 C.2   458  ASN458      0.2266
     87  O         28.6960   13.1400   22.5210 O.2   458  ASN458     -0.2867
     88  CB        30.3040   15.5260   24.3490 C.3   458  ASN458      0.1155
     89  CG        31.4820   15.9740   25.2140 C.2   458  ASN458      0.2627
     90  OD1       31.7040   17.1730   25.4310 O.2   458  ASN458     -0.2716
     91  ND2       32.2380   15.0070   25.7190 N.am  458  ASN458     -0.0877
     92  N         34.4890   33.5820   21.9200 N.3   547  TYR547     -0.1227
     93  CA        34.6500   32.4960   20.9630 C.3   547  TYR547      0.1736
     94  C         33.3200   31.8820   20.5160 C.2   547  TYR547      0.2595
     95  O         33.2450   31.2750   19.4450 O.2   547  TYR547     -0.2718
     96  CB        35.6080   31.4320   21.5310 C.3   547  TYR547      0.0548
     97  CG        34.9880   30.3220   22.3560 C.ar  547  TYR547     -0.0200
     98  CD1       34.4160   29.2090   21.7410 C.ar  547  TYR547     -0.0009
     99  CD2       35.0300   30.3530   23.7560 C.ar  547  TYR547     -0.0009
    100  CE1       33.9080   28.1570   22.4930 C.ar  547  TYR547      0.0417
    101  CE2       34.5220   29.2990   24.5160 C.ar  547  TYR547      0.0417
    102  CZ        33.9650   28.2070   23.8800 C.ar  547  TYR547      0.1957
    103  OH        33.4580   27.1570   24.6180 O.3   547  TYR547     -0.2866
    104  N         32.2800   32.0530   21.3300 N.am  548  LYS548     -0.1980
    105  CA        30.9430   31.5390   21.0200 C.3   548  LYS548      0.1596
    106  C         30.3070   32.4530   19.9790 C.2   548  LYS548      0.2287
    107  O         29.3400   32.0820   19.3090 O.2   548  LYS548     -0.2864
    108  CB        30.0550   31.5540   22.2570 C.3   548  LYS548      0.0298
    109  CG        30.6120   30.8530   23.4630 C.3   548  LYS548      0.0038
    110  CD        30.2520   29.4070   23.4710 C.3   548  LYS548      0.0206
    111  CE        30.3020   28.8670   24.8890 C.3   548  LYS548      0.1093
    112  NZ        30.0180   27.4140   24.8650 N.3   548  LYS548     -0.1314
    113  N         37.3940   26.3130   17.9930 N.3   645  THR645     -0.1203
    114  CA        37.3560   26.8310   19.3570 C.3   645  THR645      0.1994
    115  C         36.4330   26.0830   20.3260 C.2   645  THR645      0.2618
    116  O         36.7470   25.9660   21.5090 O.2   645  THR645     -0.2717
    117  CB        36.9810   28.3260   19.3500 C.3   645  THR645      0.1784
    118  OG1       35.6370   28.4840   18.8820 O.3   645  THR645     -0.2211
    119  CG2       37.9190   29.1010   18.4140 C.3   645  THR645      0.0376
    120  N         35.3050   25.5750   19.8330 N.am  646  GLU646     -0.1965
    121  CA        34.3530   24.8460   20.6740 C.3   646  GLU646      0.1733
    122  C         34.7480   23.3670   20.6330 C.2   646  GLU646      0.2616
    123  O         34.4480   22.6640   19.6690 O.2   646  GLU646     -0.2715
    124  CB        32.9280   25.0530   20.1340 C.3   646  GLU646      0.0429
    125  CG        31.7780   24.6120   21.0450 C.3   646  GLU646      0.1163
    126  CD        31.6540   25.4440   22.3110 C.2   646  GLU646      0.3649
    127  OE1       32.3350   25.1210   23.3100 O.co2 646  GLU646     -0.2457
    128  OE2       30.8770   26.4260   22.3060 O.co2 646  GLU646     -0.2457
    129  N         35.4200   22.9010   21.6860 N.am  647  ALA647     -0.1963
    130  CA        35.8840   21.5170   21.7390 C.3   647  ALA647      0.1728
    131  C         34.8340   20.5370   21.2270 C.2   647  ALA647      0.2617
    132  O         35.1320   19.6660   20.4080 O.2   647  ALA647     -0.2715
    133  CB        36.3090   21.1500   23.1660 C.3   647  ALA647      0.0334
    134  N         33.6040   20.6930   21.6980 N.am  648  SER648     -0.1936
    135  CA        32.5190   19.8220   21.2780 C.3   648  SER648      0.2055
    136  C         31.1740   20.5240   21.2620 C.2   648  SER648      0.2644
    137  O         30.5310   20.6360   20.2170 O.2   648  SER648     -0.2714
    138  CB        32.4230   18.6040   22.2000 C.3   648  SER648      0.2130
    139  OG        31.1760   17.9450   22.0420 O.3   648  SER648     -0.2179
    140  N         30.7570   21.0100   22.4270 N.am  649  GLY649     -0.1939
    141  CA        29.4560   21.6350   22.5330 C.3   649  GLY649      0.2014
    142  C         28.5110   20.4920   22.8650 C.2   649  GLY649      0.2639
    143  O         28.7270   19.3610   22.4280 O.2   649  GLY649     -0.2714
    144  N         27.4930   20.7580   23.6720 N.am  650  THR650     -0.1950
    145  CA        26.5250   19.7270   24.0170 C.3   650  THR650      0.1897
    146  C         25.1440   20.3290   23.8370 C.2   650  THR650      0.2313
    147  O         24.1710   19.6190   23.5780 O.2   650  THR650     -0.2863
    148  CB        26.6950   19.2330   25.4660 C.3   650  THR650      0.1794
    149  OG1       26.7730   20.3550   26.3510 O.3   650  THR650     -0.2208
    150  CG2       27.9510   18.3930   25.5950 C.3   650  THR650      0.0378
@<TRIPOS>BOND
     1   113   114    1
     2   119   117    1
     3   118   117    1
     4   107   106    2
     5   117   114    1
     6   114   115    1
     7    95    94    2
     8   123   122    2
     9   120   115   am
    10   120   121    1
    11   106   105    1
    12   124   121    1
    13   124   125    1
    14   137   136    2
    15   115   116    2
    16   132   131    2
    17    94    93    1
    18    94   104   am
    19   122   121    1
    20   122   129   am
    21    93    96    1
    22    93    92    1
    23   105   104    1
    24   105   108    1
    25   125   126    1
    26   131   134   am
    27   131   130    1
    28   136   135    1
    29   136   140   am
    30   135   134    1
    31   135   138    1
    32    96    97    1
    33   129   130    1
    34   130   133    1
    35    98    97   ar
    36    98   100   ar
    37   139   138    1
    38    79    80    2
    39    79    78    1
    40   108   109    1
    41   128   126   ar
    42   126   127   ar
    43    97    99   ar
    44   140   141    1
    45   143   142    2
    46   100   102   ar
    47    87    86    2
    48   141   142    1
    49   142   144   am
    50    84    85    1
    51    77    78    1
    52    78    81    1
    53   109   110    1
    54   110   111    1
    55   147   146    2
    56    86    85    1
    57   144   145    1
    58    99   101   ar
    59   146   145    1
    60   102   101   ar
    61   102   103    1
    62   145   148    1
    63    85    88    1
    64    83    81    1
    65    88    89    1
    66    81    82    1
    67   112   111    1
    68    67    66    1
    69    67    68    2
    70    89    90    2
    71    89    91   am
    72    66    65    1
    73    66    69    1
    74   148   150    1
    75   148   149    1
    76    70    69    1
    77    65    57   am
    78    58    57    2
    79    69    71    1
    80    57    56    1
    81    35    34    2
    82    36    34   am
    83    56    55    1
    84    56    59    1
    85    34    33    1
    86    19    18    1
    87    59    60    1
    88    33    30    1
    89    61    60   ar
    90    61    63   ar
    91    72    73    1
    92    28    26   ar
    93    76    73    1
    94    60    62   ar
    95    32    31    2
    96    20    18    1
    97     2     1    1
    98     2     3    1
    99    18    17    1
   100    63    64   ar
   101    30    31    1
   102    30    29    1
   103    73    74    1
   104    62    64   ar
   105     3     4    2
   106     3     5   am
   107    17    14    1
   108    26    27   ar
   109    26    25    1
   110    24    23    2
   111    74    75    2
   112     5     6    1
   113    29    23   am
   114    14    13    1
   115    14    15    1
   116    23    22    1
   117    44    42   ar
   118    25    22    1
   119     6     9    1
   120     6     7    1
   121     9    10    1
   122    16    15    2
   123    42    43   ar
   124    42    41    1
   125    22    21    1
   126    11    10    1
   127    38    41    1
   128    38    37    1
   129    38    39    1
   130     7     8    2
   131    10    12    1
   132    39    40    2
   133    54    53   ar
   134    54    52   ar
   135    53    51   ar
   136    52    50   ar
   137    51    50   ar
   138    45    46    1
   139    50    49    1
   140    46    49    1
   141    46    47    1
   142    47    48    2
