@<TRIPOS>MOLECULE
tmp/1p4tA01.pdb
 74 71 0 0 0
SMALL
GASTEIGER

@<TRIPOS>ATOM
      1  N         43.7020   23.4720   31.4430 N.3    12  ALA12      -0.1231
      2  CA        43.8010   24.0790   32.7360 C.3    12  ALA12       0.1694
      3  C         42.3890   24.5020   33.1170 C.2    12  ALA12       0.2592
      4  O         41.6170   24.9710   32.2930 O.2    12  ALA12      -0.2718
      5  CB        44.7750   25.3120   32.6820 C.3    12  ALA12       0.0304
      6  N         42.0530   24.3630   34.3860 N.am   13  ALA13      -0.1966
      7  CA        40.6940   24.6290   34.8450 C.3    13  ALA13       0.1728
      8  C         40.6350   25.2450   36.2240 C.2    13  ALA13       0.2616
      9  O         41.3400   24.8250   37.1480 O.2    13  ALA13      -0.2715
     10  CB        39.9160   23.3500   34.8260 C.3    13  ALA13       0.0334
     11  N         39.7910   26.2690   36.3270 N.am   14  HIS14      -0.1973
     12  CA        39.2940   26.7810   37.5880 C.3    14  HIS14       0.1656
     13  C         38.0510   25.9600   37.9570 C.2    14  HIS14       0.2291
     14  O         37.1450   25.8240   37.1660 O.2    14  HIS14      -0.2864
     15  CB        38.9790   28.2710   37.4730 C.3    14  HIS14       0.0771
     16  CG        38.5020   28.8930   38.7580 C.ar   14  HIS14       0.0820
     17  ND1       39.0960   29.9900   39.3260 N.ar   14  HIS14      -0.2267
     18  CD2       37.4880   28.5620   39.5890 C.ar   14  HIS14       0.1154
     19  CE1       38.4680   30.3200   40.4370 C.ar   14  HIS14       0.1986
     20  NE2       37.4930   29.4590   40.6280 N.ar   14  HIS14      -0.2212
     21  N         41.9750   24.3630   41.3820 N.3    27  PHE27      -0.1241
     22  CA        42.4100   24.1860   40.0260 C.3    27  PHE27       0.1605
     23  C         42.4830   22.7170   39.6860 C.2    27  PHE27       0.2264
     24  O         42.6900   21.8730   40.5420 O.2    27  PHE27      -0.2867
     25  CB        43.7180   24.9560   39.7590 C.3    27  PHE27       0.0534
     26  CG        44.8440   24.5880   40.6380 C.ar   27  PHE27      -0.0203
     27  CD1       45.8640   23.7640   40.1690 C.ar   27  PHE27      -0.0042
     28  CD2       44.9170   25.0730   41.9530 C.ar   27  PHE27      -0.0042
     29  CE1       46.9570   23.4130   41.0390 C.ar   27  PHE27      -0.0003
     30  CE2       45.9780   24.7320   42.8110 C.ar   27  PHE27      -0.0003
     31  CZ        46.9980   23.9140   42.3600 C.ar   27  PHE27      -0.0000
     32  N         43.1010   25.9930   46.1470 N.3    52  TYR52      -0.1241
     33  CA        44.0510   27.1210   46.1130 C.3    52  TYR52       0.1605
     34  C         44.6070   27.3050   47.4650 C.2    52  TYR52       0.2264
     35  O         45.7940   27.4950   47.6250 O.2    52  TYR52      -0.2867
     36  CB        43.4020   28.4490   45.7170 C.3    52  TYR52       0.0534
     37  CG        42.9950   28.5030   44.2720 C.ar   52  TYR52      -0.0201
     38  CD1       41.6500   28.6500   43.9170 C.ar   52  TYR52      -0.0009
     39  CD2       43.9540   28.3920   43.2480 C.ar   52  TYR52      -0.0009
     40  CE1       41.2800   28.7170   42.6150 C.ar   52  TYR52       0.0417
     41  CE2       43.5740   28.4470   41.8980 C.ar   52  TYR52       0.0417
     42  CZ        42.2340   28.5980   41.5960 C.ar   52  TYR52       0.1957
     43  OH        41.8150   28.6420   40.2870 O.3    52  TYR52      -0.2866
     44  N         33.2730   25.4620   23.4310 N.3   114  VAL114     -0.1245
     45  CA        33.5760   25.9800   22.1110 C.3   114  VAL114      0.1561
     46  C         35.0280   25.6770   21.7860 C.2   114  VAL114      0.2260
     47  O         35.9010   25.8980   22.6190 O.2   114  VAL114     -0.2867
     48  CB        33.3730   27.5120   22.0600 C.3   114  VAL114      0.0252
     49  CG1       33.6300   28.0070   20.6910 C.3   114  VAL114      0.0019
     50  CG2       31.9460   27.8430   22.3800 C.3   114  VAL114      0.0019
     51  N         37.5050   26.1470   24.9800 N.3   126  ALA126     -0.1245
     52  CA        37.0800   26.8170   26.1970 C.3   126  ALA126      0.1562
     53  C         35.8850   26.0300   26.6620 C.2   126  ALA126      0.2260
     54  O         34.9020   25.9370   25.9250 O.2   126  ALA126     -0.2867
     55  CB        36.6880   28.2510   25.8960 C.3   126  ALA126      0.0290
     56  N         35.6020   25.4510   34.8240 N.3   147  LEU147     -0.1231
     57  CA        35.7570   26.2870   33.6730 C.3   147  LEU147      0.1693
     58  C         37.1480   26.1000   33.1860 C.2   147  LEU147      0.2593
     59  O         38.0520   26.2480   33.9490 O.2   147  LEU147     -0.2718
     60  CB        35.5440   27.7310   34.0700 C.3   147  LEU147      0.0284
     61  CG        34.1350   28.2210   33.7600 C.3   147  LEU147      0.0019
     62  CD1       33.8510   29.5640   34.4760 C.3   147  LEU147      0.0001
     63  CD2       33.9620   28.3190   32.1880 C.3   147  LEU147      0.0001
     64  N         37.3350   25.7910   31.9040 N.am  148  SER148     -0.1938
     65  CA        38.6530   25.4560   31.3660 C.3   148  SER148      0.2055
     66  C         39.0030   26.0520   30.0020 C.2   148  SER148      0.2642
     67  O         38.1920   26.5970   29.2870 O.2   148  SER148     -0.2714
     68  CB        38.7380   23.9640   31.2250 C.3   148  SER148      0.2130
     69  OG        37.8140   23.5920   30.1940 O.3   148  SER148     -0.2179
     70  N         40.2650   25.8790   29.6600 N.am  149  ALA149     -0.1977
     71  CA        40.8670   26.4080   28.4610 C.3   149  ALA149      0.1597
     72  C         41.9690   25.4360   28.1460 C.2   149  ALA149      0.2287
     73  O         42.7620   25.1430   29.0200 O.2   149  ALA149     -0.2864
     74  CB        41.4440   27.7780   28.7200 C.3   149  ALA149      0.0319
@<TRIPOS>BOND
     1    49    48    1
     2    46    45    1
     3    46    47    2
     4    48    45    1
     5    48    50    1
     6    45    44    1
     7    51    52    1
     8    55    52    1
     9    54    53    2
    10    52    53    1
    11    72    71    1
    12    72    73    2
    13    71    74    1
    14    71    70    1
    15    67    66    2
    16    70    66   am
    17    66    65    1
    18    69    68    1
    19    68    65    1
    20    65    64    1
    21     1     2    1
    22    64    58   am
    23    63    61    1
    24     4     3    2
    25     5     2    1
    26     2     3    1
    27     3     6   am
    28    58    57    1
    29    58    59    2
    30    57    60    1
    31    57    56    1
    32    61    60    1
    33    61    62    1
    34     6     7    1
    35    10     7    1
    36     7     8    1
    37     8    11   am
    38     8     9    2
    39    11    12    1
    40    14    13    2
    41    15    12    1
    42    15    16    1
    43    12    13    1
    44    16    17   ar
    45    16    18   ar
    46    17    19   ar
    47    18    20   ar
    48    23    22    1
    49    23    24    2
    50    25    22    1
    51    25    26    1
    52    22    21    1
    53    27    26   ar
    54    27    29   ar
    55    43    42    1
    56    19    20   ar
    57    26    28   ar
    58    29    31   ar
    59    42    41   ar
    60    42    40   ar
    61    41    39   ar
    62    28    30   ar
    63    31    30   ar
    64    40    38   ar
    65    39    37   ar
    66    38    37   ar
    67    37    36    1
    68    36    33    1
    69    33    32    1
    70    33    34    1
    71    34    35    2
