@<TRIPOS>MOLECULE
tmp/1p4tA03.pdb
 84 80 0 0 0
SMALL
GASTEIGER

@<TRIPOS>ATOM
      1  N         39.5170   10.1220   19.9270 N.3    35  TYR35      -0.1241
      2  CA        39.3790   10.0760   18.4730 C.3    35  TYR35       0.1605
      3  C         37.9530   10.3970   18.0000 C.2    35  TYR35       0.2264
      4  O         37.0770   10.5720   18.8140 O.2    35  TYR35      -0.2867
      5  CB        39.7840    8.7000   17.9850 C.3    35  TYR35       0.0534
      6  CG        39.0710    7.6300   18.7260 C.ar   35  TYR35      -0.0201
      7  CD1       37.8590    7.1030   18.2510 C.ar   35  TYR35      -0.0009
      8  CD2       39.5780    7.1570   19.9300 C.ar   35  TYR35      -0.0009
      9  CE1       37.1790    6.1160   18.9790 C.ar   35  TYR35       0.0417
     10  CE2       38.9190    6.1740   20.6540 C.ar   35  TYR35       0.0417
     11  CZ        37.7270    5.6660   20.1870 C.ar   35  TYR35       0.1957
     12  OH        37.1130    4.6980   20.9310 O.3    35  TYR35      -0.2866
     13  N         34.7420    9.0150   15.5360 N.3    37  ILE37      -0.1245
     14  CA        34.0250    8.0850   14.6430 C.3    37  ILE37       0.1561
     15  C         32.6930    8.7490   14.3590 C.2    37  ILE37       0.2260
     16  O         32.2390    9.5400   15.1830 O.2    37  ILE37      -0.2867
     17  CB        33.7430    6.7150   15.2970 C.3    37  ILE37       0.0252
     18  CG1       34.7720    6.3810   16.3620 C.3    37  ILE37       0.0019
     19  CG2       33.6850    5.5890   14.2230 C.3    37  ILE37       0.0019
     20  CD1       34.5720    4.9950   16.9690 C.3    37  ILE37       0.0001
     21  N         35.2300   10.6620   21.0670 N.3    42  PHE42      -0.1227
     22  CA        35.3560    9.9100   22.2920 C.3    42  PHE42       0.1736
     23  C         36.7070   10.1480   22.9480 C.2    42  PHE42       0.2595
     24  O         37.7040   10.2920   22.2890 O.2    42  PHE42      -0.2718
     25  CB        35.0970    8.4600   22.0140 C.3    42  PHE42       0.0547
     26  CG        33.7440    8.2130   21.3840 C.ar   42  PHE42      -0.0202
     27  CD1       32.6180    8.0730   22.1640 C.ar   42  PHE42      -0.0042
     28  CD2       33.6020    8.1520   19.9970 C.ar   42  PHE42      -0.0042
     29  CE1       31.3840    7.8420   21.5840 C.ar   42  PHE42      -0.0003
     30  CE2       32.3800    7.9290   19.4170 C.ar   42  PHE42      -0.0003
     31  CZ        31.2640    7.7840   20.2110 C.ar   42  PHE42      -0.0000
     32  N         36.7320   10.2620   24.2650 N.am   43  ALA43      -0.1980
     33  CA        37.9730   10.5890   24.9180 C.3    43  ALA43       0.1597
     34  C         38.0320   10.0300   26.3310 C.2    43  ALA43       0.2287
     35  O         37.0350    9.9570   27.0070 O.2    43  ALA43      -0.2864
     36  CB        38.1690   12.1060   24.9330 C.3    43  ALA43       0.0319
     37  N         35.4830    8.9860   30.8570 N.3    66  ALA66      -0.1231
     38  CA        35.2090    8.6210   29.4790 C.3    66  ALA66       0.1694
     39  C         34.0970    9.5330   28.9610 C.2    66  ALA66       0.2593
     40  O         33.0530    9.5870   29.5310 O.2    66  ALA66      -0.2718
     41  CB        34.7880    7.1630   29.3960 C.3    66  ALA66       0.0304
     42  N         34.3490   10.2510   27.8790 N.am   67  SER67      -0.1938
     43  CA        33.4690   11.2960   27.3560 C.3    67  SER67       0.2055
     44  C         33.0210   10.9500   25.9550 C.2    67  SER67       0.2642
     45  O         33.8020   10.4000   25.1650 O.2    67  SER67      -0.2714
     46  CB        34.2110   12.6330   27.3090 C.3    67  SER67       0.2130
     47  OG        34.5720   13.0740   28.6200 O.3    67  SER67      -0.2179
     48  N         31.7520   11.2360   25.6620 N.am   68  ALA68      -0.1977
     49  CA        31.2280   11.2150   24.2970 C.3    68  ALA68       0.1597
     50  C         30.6690   12.6100   23.9830 C.2    68  ALA68       0.2287
     51  O         29.8640   13.1670   24.7280 O.2    68  ALA68      -0.2864
     52  CB        30.1920   10.1880   24.1610 C.3    68  ALA68       0.0319
     53  N         28.6470   14.1810   27.3220 N.3    84  ALA84      -0.1231
     54  CA        28.4070   13.5460   28.5940 C.3    84  ALA84       0.1694
     55  C         29.6720   12.8130   29.0060 C.2    84  ALA84       0.2592
     56  O         30.4440   12.4160   28.1620 O.2    84  ALA84      -0.2718
     57  CB        27.2090   12.5870   28.4760 C.3    84  ALA84       0.0304
     58  N         29.8740   12.6280   30.3080 N.am   85  ARG85      -0.1966
     59  CA        31.0840   12.0080   30.8410 C.3    85  ARG85       0.1729
     60  C         30.7710   11.0260   31.9920 C.2    85  ARG85       0.2616
     61  O         30.0620   11.3650   32.9240 O.2    85  ARG85      -0.2715
     62  CB        31.9910   13.1110   31.3390 C.3    85  ARG85       0.0348
     63  CG        33.2910   12.6530   31.9310 C.3    85  ARG85       0.0492
     64  CD        34.2020   13.8220   32.2160 C.3    85  ARG85       0.2205
     65  NE        35.4490   13.4420   32.8670 N.pl3  85  ARG85      -0.0865
     66  CZ        35.5980   13.3590   34.1690 C.cat  85  ARG85       0.5346
     67  NH1       34.5690   13.6030   34.9830 N.pl3  85  ARG85       0.1354
     68  NH2       36.7810   13.0360   34.6690 N.pl3  85  ARG85       0.1354
     69  N         31.2820    9.8050   31.8900 N.am   86  LEU86      -0.1977
     70  CA        31.2650    8.8280   32.9720 C.3    86  LEU86       0.1596
     71  C         32.6450    8.7940   33.6450 C.2    86  LEU86       0.2287
     72  O         33.6620    8.7860   32.9630 O.2    86  LEU86      -0.2864
     73  CB        30.9560    7.4700   32.4030 C.3    86  LEU86       0.0297
     74  CG        30.5020    6.3680   33.3640 C.3    86  LEU86       0.0022
     75  CD1       29.1800    6.7210   34.0550 C.3    86  LEU86       0.0001
     76  CD2       30.3390    5.0810   32.5850 C.3    86  LEU86       0.0001
     77  N         28.7620   11.1140   37.0560 N.3   108  LEU108     -0.1245
     78  CA        28.1070   11.3840   35.7920 C.3   108  LEU108      0.1561
     79  C         28.0890   12.8950   35.5570 C.2   108  LEU108      0.2260
     80  O         27.6230   13.6380   36.3980 O.2   108  LEU108     -0.2867
     81  CB        26.7040   10.7860   35.8180 C.3   108  LEU108      0.0270
     82  CG        25.8120   11.1390   34.6400 C.3   108  LEU108      0.0019
     83  CD1       26.3780   10.5850   33.3020 C.3   108  LEU108      0.0001
     84  CD2       24.3840   10.6520   34.8840 C.3   108  LEU108      0.0001
@<TRIPOS>BOND
     1    19    17    1
     2    15    14    1
     3    15    16    2
     4    14    17    1
     5    14    13    1
     6    17    18    1
     7    18    20    1
     8     5     2    1
     9     5     6    1
    10     3     2    1
    11     3     4    2
    12     7     6   ar
    13     7     9   ar
    14     2     1    1
    15     6     8   ar
    16     9    11   ar
    17    30    28   ar
    18    30    31   ar
    19     8    10   ar
    20    28    26   ar
    21    11    10   ar
    22    11    12    1
    23    31    29   ar
    24    21    22    1
    25    26    25    1
    26    26    27   ar
    27    29    27   ar
    28    25    22    1
    29    24    23    2
    30    22    23    1
    31    23    32   am
    32    50    49    1
    33    50    51    2
    34    52    49    1
    35    32    33    1
    36    49    48    1
    37    33    36    1
    38    33    34    1
    39    45    44    2
    40    48    44   am
    41    44    43    1
    42    34    35    2
    43    46    43    1
    44    46    47    1
    45    53    54    1
    46    43    42    1
    47    42    39   am
    48    56    55    2
    49    57    54    1
    50    54    55    1
    51    39    38    1
    52    39    40    2
    53    55    58   am
    54    41    38    1
    55    38    37    1
    56    58    59    1
    57    59    62    1
    58    59    60    1
    59    62    63    1
    60    69    60   am
    61    69    70    1
    62    63    64    1
    63    60    61    2
    64    64    65    1
    65    73    70    1
    66    73    74    1
    67    76    74    1
    68    65    66    2
    69    72    71    2
    70    70    71    1
    71    83    82    1
    72    74    75    1
    73    66    68    1
    74    66    67    1
    75    82    84    1
    76    82    81    1
    77    79    78    1
    78    79    80    2
    79    78    81    1
    80    78    77    1
