@<TRIPOS>MOLECULE
tmp/1p4tA04.pdb
 151 142 0 0 0
SMALL
GASTEIGER

@<TRIPOS>ATOM
      1  N         34.4360   22.6840   43.9850 N.3    17  ALA17      -0.1231
      2  CA        33.9320   21.4050   44.4680 C.3    17  ALA17       0.1694
      3  C         32.9520   21.6930   45.5800 C.2    17  ALA17       0.2593
      4  O         33.2240   22.5230   46.4330 O.2    17  ALA17      -0.2718
      5  CB        35.0740   20.5570   44.9790 C.3    17  ALA17       0.0304
      6  N         31.8210   21.0060   45.5830 N.am   18  SER18      -0.1938
      7  CA        30.8600   21.1250   46.6860 C.3    18  SER18       0.2055
      8  C         30.3420   19.8020   47.2370 C.2    18  SER18       0.2643
      9  O         30.4960   18.7460   46.6390 O.2    18  SER18      -0.2714
     10  CB        29.6900   21.9710   46.2440 C.3    18  SER18       0.2130
     11  OG        30.1980   23.0970   45.5640 O.3    18  SER18      -0.2179
     12  N         29.7240   19.8940   48.4030 N.am   19  SER19      -0.1949
     13  CA        29.1470   18.7660   49.0860 C.3    19  SER19       0.1924
     14  C         28.1740   19.3180   50.1220 C.2    19  SER19       0.2314
     15  O         27.9320   20.5190   50.1610 O.2    19  SER19      -0.2863
     16  CB        30.2560   17.9610   49.7420 C.3    19  SER19       0.2116
     17  OG        30.9350   18.7270   50.7350 O.3    19  SER19      -0.2180
     18  N         28.8360   19.5470   53.1540 N.3    21  LEU21      -0.1231
     19  CA        29.7140   20.1690   54.1580 C.3    21  LEU21       0.1693
     20  C         30.1220   21.5900   53.7820 C.2    21  LEU21       0.2593
     21  O         30.3870   22.4150   54.6450 O.2    21  LEU21      -0.2718
     22  CB        30.9970   19.3330   54.3440 C.3    21  LEU21       0.0284
     23  CG        30.8500   17.8320   54.6740 C.3    21  LEU21       0.0019
     24  CD1       32.2360   17.1590   54.6670 C.3    21  LEU21       0.0001
     25  CD2       30.1130   17.5970   56.0010 C.3    21  LEU21       0.0001
     26  N         30.1920   21.8680   52.4990 N.am   22  GLY22      -0.1942
     27  CA        30.5510   23.1940   52.0420 C.3    22  GLY22       0.2014
     28  C         31.1370   23.1690   50.6440 C.2    22  GLY22       0.2640
     29  O         31.0860   22.1680   49.9550 O.2    22  GLY22      -0.2714
     30  N         31.7030   24.2810   50.2170 N.am   23  SER23      -0.1935
     31  CA        32.3330   24.3100   48.9250 C.3    23  SER23       0.2055
     32  C         33.7180   24.9160   49.0170 C.2    23  SER23       0.2642
     33  O         34.0580   25.5690   49.9900 O.2    23  SER23      -0.2714
     34  CB        31.4390   25.0370   47.9190 C.3    23  SER23       0.2130
     35  OG        31.2520   26.3790   48.3010 O.3    23  SER23      -0.2179
     36  N         34.5130   24.6450   47.9950 N.am   24  ALA24      -0.1977
     37  CA        35.8960   25.0570   47.9330 C.3    24  ALA24       0.1597
     38  C         36.2580   25.3380   46.4830 C.2    24  ALA24       0.2287
     39  O         35.6110   24.8700   45.5510 O.2    24  ALA24      -0.2864
     40  CB        36.7860   23.9840   48.4890 C.3    24  ALA24       0.0319
     41  N         42.0360   24.0910   53.4190 N.3    55  PRO55      -0.2116
     42  CA        41.1560   24.0780   54.5980 C.3    55  PRO55       0.1372
     43  C         41.7430   23.2610   55.7620 C.2    55  PRO55       0.2244
     44  O         42.8110   22.6520   55.6130 O.2    55  PRO55      -0.2868
     45  CB        39.8590   23.4370   54.0830 C.3    55  PRO55       0.0268
     46  CG        40.1520   22.8430   52.7540 C.3    55  PRO55       0.0207
     47  CD        41.5060   23.2680   52.3170 C.3    55  PRO55       0.0892
     48  N         40.9550   20.4870   56.9360 N.3    57  THR57      -0.1218
     49  CA        41.1730   19.2000   56.3080 C.3    57  THR57       0.1862
     50  C         41.4250   19.4320   54.8190 C.2    57  THR57       0.2287
     51  O         40.4660   19.5320   54.0400 O.2    57  THR57      -0.2866
     52  CB        39.9240   18.3460   56.4750 C.3    57  THR57       0.1770
     53  OG1       39.6750   18.1190   57.8620 O.3    57  THR57      -0.2211
     54  CG2       40.1240   16.9490   55.8960 C.3    57  THR57       0.0375
     55  N         42.3860   18.3010   50.9860 N.3    59  PHE59      -0.1241
     56  CA        42.1300   17.0740   50.2540 C.3    59  PHE59       0.1605
     57  C         42.4430   17.3110   48.7970 C.2    59  PHE59       0.2264
     58  O         42.4810   18.4450   48.3630 O.2    59  PHE59      -0.2867
     59  CB        40.6530   16.6510   50.4030 C.3    59  PHE59       0.0534
     60  CG        39.6990   17.6870   49.9100 C.ar   59  PHE59      -0.0203
     61  CD1       39.3460   17.7340   48.5580 C.ar   59  PHE59      -0.0042
     62  CD2       39.2170   18.6730   50.7820 C.ar   59  PHE59      -0.0042
     63  CE1       38.4820   18.7110   48.0890 C.ar   59  PHE59      -0.0003
     64  CE2       38.3520   19.6650   50.3310 C.ar   59  PHE59      -0.0003
     65  CZ        37.9840   19.6980   48.9830 C.ar   59  PHE59      -0.0000
     66  N         41.0980   15.6970   44.8540 N.3    61  LEU61      -0.1245
     67  CA        40.1080   14.8980   44.1190 C.3    61  LEU61       0.1561
     68  C         40.7230   14.4170   42.8070 C.2    61  LEU61       0.2260
     69  O         41.4540   15.1430   42.1590 O.2    61  LEU61      -0.2867
     70  CB        38.9020   15.7580   43.8030 C.3    61  LEU61       0.0270
     71  CG        37.6250   15.6540   44.6270 C.3    61  LEU61       0.0019
     72  CD1       37.8740   15.3020   46.1130 C.3    61  LEU61       0.0001
     73  CD2       36.8410   17.0010   44.5010 C.3    61  LEU61       0.0001
     74  N         38.9570   10.5650   46.4340 N.3    91  ALA91      -0.1231
     75  CA        39.5300   11.6740   47.1840 C.3    91  ALA91       0.1694
     76  C         40.7460   11.2040   47.9620 C.2    91  ALA91       0.2593
     77  O         40.9490   10.0120   48.1960 O.2    91  ALA91      -0.2718
     78  CB        38.5260   12.2870   48.1280 C.3    91  ALA91       0.0304
     79  N         41.5200   12.1830   48.3910 N.am   92  SER92      -0.1938
     80  CA        42.8220   11.9910   49.0380 C.3    92  SER92       0.2055
     81  C         42.8370   12.9010   50.2370 C.2    92  SER92       0.2642
     82  O         42.2810   13.9880   50.2110 O.2    92  SER92      -0.2714
     83  CB        43.9010   12.4210   48.0150 C.3    92  SER92       0.2130
     84  OG        45.2200   12.3930   48.4620 O.3    92  SER92      -0.2179
     85  N         43.5050   12.4730   51.2850 N.am   93  VAL93      -0.1977
     86  CA        43.7560   13.3050   52.4440 C.3    93  VAL93       0.1596
     87  C         45.1560   12.9370   52.8860 C.2    93  VAL93       0.2287
     88  O         45.5510   11.7780   52.8260 O.2    93  VAL93      -0.2864
     89  CB        42.6270   13.0760   53.4910 C.3    93  VAL93       0.0276
     90  CG1       43.1250   12.5490   54.8260 C.3    93  VAL93       0.0022
     91  CG2       41.8120   14.3310   53.6630 C.3    93  VAL93       0.0022
     92  N         48.1640   12.3720   55.4570 N.3    95  LEU95      -0.1245
     93  CA        48.1430   11.7900   56.7860 C.3    95  LEU95       0.1561
     94  C         49.5690   11.4450   57.1390 C.2    95  LEU95       0.2260
     95  O         50.1060   10.4400   56.6670 O.2    95  LEU95      -0.2867
     96  CB        47.2600   10.5330   56.8130 C.3    95  LEU95       0.0270
     97  CG        45.7240   10.6950   56.8120 C.3    95  LEU95       0.0019
     98  CD1       45.0300    9.3200   56.8660 C.3    95  LEU95       0.0001
     99  CD2       45.2450   11.5670   57.9770 C.3    95  LEU95       0.0001
    100  N         46.2760    9.2330   51.6610 N.3   100  SER100     -0.1202
    101  CA        45.4510    8.0440   51.7910 C.3   100  SER100      0.2020
    102  C         44.1040    8.2580   51.0790 C.2   100  SER100      0.2619
    103  O         43.4220    9.2640   51.2560 O.2   100  SER100     -0.2717
    104  CB        45.2710    7.6390   53.2540 C.3   100  SER100      0.2103
    105  OG        44.4410    8.5480   53.9310 O.3   100  SER100     -0.2182
    106  N         43.7220    7.2750   50.2770 N.am  101  PHE101     -0.1961
    107  CA        42.6330    7.4260   49.3400 C.3   101  PHE101      0.1771
    108  C         41.3230    6.8360   49.8590 C.2   101  PHE101      0.2620
    109  O         41.3210    6.0110   50.7500 O.2   101  PHE101     -0.2715
    110  CB        43.0400    6.8230   48.0010 C.3   101  PHE101      0.0574
    111  CG        44.2090    7.5160   47.3670 C.ar  101  PHE101     -0.0200
    112  CD1       45.4930    7.3370   47.8560 C.ar  101  PHE101     -0.0042
    113  CD2       44.0260    8.3610   46.2910 C.ar  101  PHE101     -0.0042
    114  CE1       46.5730    7.9780   47.2770 C.ar  101  PHE101     -0.0003
    115  CE2       45.0990    9.0160   45.7110 C.ar  101  PHE101     -0.0003
    116  CZ        46.3740    8.8190   46.2010 C.ar  101  PHE101     -0.0000
    117  N         40.2210    7.3330   49.3050 N.am  102  SER102     -0.1950
    118  CA        38.8520    6.9110   49.5900 C.3   102  SER102      0.1924
    119  C         38.5210    5.7150   48.7150 C.2   102  SER102      0.2314
    120  O         39.2950    5.3660   47.8230 O.2   102  SER102     -0.2863
    121  CB        37.8750    8.0490   49.2140 C.3   102  SER102      0.2116
    122  OG        37.7320    8.1920   47.7860 O.3   102  SER102     -0.2180
    123  N         31.4850   10.1510   48.6770 N.3   136  VAL136     -0.1231
    124  CA        32.8940    9.7570   48.7950 C.3   136  VAL136      0.1692
    125  C         33.2450    9.4750   50.2680 C.2   136  VAL136      0.2592
    126  O         33.4600   10.4110   51.0510 O.2   136  VAL136     -0.2718
    127  CB        33.8280   10.8710   48.2250 C.3   136  VAL136      0.0266
    128  CG1       35.2770   10.4460   48.3200 C.3   136  VAL136      0.0020
    129  CG2       33.4380   11.2410   46.7710 C.3   136  VAL136      0.0020
    130  N         33.2820    8.1910   50.6350 N.am  137  ASN137     -0.1974
    131  CA        33.6020    7.7630   52.0040 C.3   137  ASN137      0.1688
    132  C         33.1030    8.7610   53.1020 C.2   137  ASN137      0.2292
    133  O         33.8960    9.5260   53.6830 O.2   137  ASN137     -0.2864
    134  CB        35.1180    7.4710   52.0980 C.3   137  ASN137      0.1181
    135  CG        35.6780    7.6140   53.5230 C.2   137  ASN137      0.2629
    136  OD1       35.5710    6.7040   54.3500 O.2   137  ASN137     -0.2716
    137  ND2       36.2790    8.7630   53.8030 N.am  137  ASN137     -0.0877
    138  N         31.1280   11.6600   53.0960 N.3   139  VAL139     -0.1245
    139  CA        30.6180   12.9460   52.6120 C.3   139  VAL139      0.1561
    140  C         29.5910   12.7610   51.4800 C.2   139  VAL139      0.2260
    141  O         29.8080   11.9750   50.5560 O.2   139  VAL139     -0.2867
    142  CB        31.8010   13.8510   52.1460 C.3   139  VAL139      0.0252
    143  CG1       31.3030   15.1750   51.5570 C.3   139  VAL139      0.0019
    144  CG2       32.7630   14.0940   53.3080 C.3   139  VAL139      0.0019
    145  N         28.5910   15.1290   46.5940 N.3   142  VAL142     -0.1245
    146  CA        29.7790   15.7230   46.0290 C.3   142  VAL142      0.1561
    147  C         29.5810   16.0340   44.5450 C.2   142  VAL142      0.2260
    148  O         29.0780   15.2050   43.7940 O.2   142  VAL142     -0.2867
    149  CB        31.0050   14.8440   46.2560 C.3   142  VAL142      0.0252
    150  CG1       32.2290   15.4650   45.6260 C.3   142  VAL142      0.0019
    151  CG2       31.2310   14.6670   47.7570 C.3   142  VAL142      0.0019
@<TRIPOS>BOND
     1    69    68    2
     2    68    67    1
     3   148   147    2
     4    70    67    1
     5    70    71    1
     6     1     2    1
     7    67    66    1
     8     2     5    1
     9     2     3    1
    10    73    71    1
    11   147   146    1
    12    71    72    1
    13    39    38    2
    14    11    10    1
    15     3     6   am
    16     3     4    2
    17     6     7    1
    18   150   149    1
    19   115   116   ar
    20   115   113   ar
    21   146   149    1
    22   146   145    1
    23   116   114   ar
    24    10     7    1
    25   149   151    1
    26   113   111   ar
    27    74    75    1
    28    38    37    1
    29     9     8    2
    30     7     8    1
    31   129   127    1
    32    75    76    1
    33    75    78    1
    34     8    12   am
    35   114   112   ar
    36   111   112   ar
    37   111   110    1
    38   122   121    1
    39   120   119    2
    40    34    35    1
    41    34    31    1
    42    37    36    1
    43    37    40    1
    44    76    77    2
    45    76    79   am
    46    36    32   am
    47   110   107    1
    48    83    84    1
    49    83    80    1
    50    63    61   ar
    51    63    65   ar
    52   127   128    1
    53   127   124    1
    54    58    57    2
    55    79    80    1
    56    12    13    1
    57    61    60   ar
    58   123   124    1
    59   119   118    1
    60   124   125    1
    61    57    56    1
    62    31    32    1
    63    31    30    1
    64    65    64   ar
    65    32    33    2
    66    80    81    1
    67    13    16    1
    68    13    14    1
    69   121   118    1
    70   117   118    1
    71   117   108   am
    72   107   108    1
    73   107   106    1
    74    16    17    1
    75   108   109    2
    76    60    59    1
    77    60    62   ar
    78    29    28    2
    79    14    15    2
    80    82    81    2
    81    30    28   am
    82    81    85   am
    83    56    59    1
    84    56    55    1
    85   125   130   am
    86   125   126    2
    87   106   102   am
    88    64    62   ar
    89   141   140    2
    90   130   131    1
    91    28    27    1
    92   102   103    2
    93   102   101    1
    94    85    86    1
    95   140   139    1
    96   143   142    1
    97   100   101    1
    98   101   104    1
    99   131   134    1
   100   131   132    1
   101    27    26    1
   102   134   135    1
   103   142   139    1
   104   142   144    1
   105    47    46    1
   106    47    41    1
   107    86    87    1
   108    86    89    1
   109    26    20   am
   110   139   138    1
   111    46    45    1
   112    88    87    2
   113   132   133    2
   114    18    19    1
   115   104   105    1
   116    41    42    1
   117    89    91    1
   118    89    90    1
   119   135   137   am
   120   135   136    2
   121    20    19    1
   122    20    21    2
   123    51    50    2
   124    45    42    1
   125    19    22    1
   126    22    23    1
   127    42    43    1
   128    24    23    1
   129    23    25    1
   130    50    49    1
   131    92    93    1
   132    44    43    2
   133    54    52    1
   134    49    52    1
   135    49    48    1
   136    52    53    1
   137    95    94    2
   138    93    96    1
   139    93    94    1
   140    97    96    1
   141    97    98    1
   142    97    99    1
