@<TRIPOS>MOLECULE
tmp/1p4tA00.pdb
 104 100 0 0 0
SMALL
GASTEIGER

@<TRIPOS>ATOM
      1  N         45.3720   18.9310   26.4830 N.3    10  ALA10      -0.1231
      2  CA        45.7080   19.3630   27.8160 C.3    10  ALA10       0.1694
      3  C         44.8810   20.6150   28.1290 C.2    10  ALA10       0.2592
      4  O         44.8020   21.4890   27.3080 O.2    10  ALA10      -0.2718
      5  CB        47.1730   19.6450   27.8980 C.3    10  ALA10       0.0304
      6  N         44.2360   20.6500   29.3020 N.am   11  ASP11      -0.1960
      7  CA        43.4430   21.7810   29.7830 C.3    11  ASP11       0.1840
      8  C         43.8530   22.1920   31.1960 C.2    11  ASP11       0.2621
      9  O         44.3060   21.4000   32.0080 O.2    11  ASP11      -0.2715
     10  CB        41.9700   21.4490   29.8380 C.3    11  ASP11       0.1450
     11  CG        41.4480   20.7800   28.5520 C.2    11  ASP11       0.3671
     12  OD1       41.1290   21.4630   27.5380 O.co2  11  ASP11      -0.2456
     13  OD2       41.3140   19.5480   28.4660 O.co2  11  ASP11      -0.2456
     14  N         43.7020   23.4720   31.4430 N.am   12  ALA12      -0.1977
     15  CA        43.8010   24.0790   32.7360 C.3    12  ALA12       0.1597
     16  C         42.3890   24.5020   33.1170 C.2    12  ALA12       0.2287
     17  O         41.6170   24.9710   32.2930 O.2    12  ALA12      -0.2864
     18  CB        44.7750   25.3120   32.6820 C.3    12  ALA12       0.0319
     19  N         43.8700   20.7260   36.5000 N.3    29  PRO29      -0.2102
     20  CA        44.5140   20.3540   35.2510 C.3    29  PRO29       0.1504
     21  C         44.0340   18.9500   34.7980 C.2    29  PRO29       0.2576
     22  O         43.7750   18.0650   35.6250 O.2    29  PRO29      -0.2718
     23  CB        45.9890   20.3730   35.6070 C.3    29  PRO29       0.0282
     24  CG        46.0530   20.3190   37.0160 C.3    29  PRO29       0.0208
     25  CD        44.8310   20.9660   37.5800 C.3    29  PRO29       0.0893
     26  N         43.9630   18.7870   33.4850 N.am   30  ARG30      -0.1966
     27  CA        43.3680   17.6510   32.8030 C.3    30  ARG30       0.1729
     28  C         44.2370   17.2640   31.6010 C.2    30  ARG30       0.2616
     29  O         44.7850   18.1230   30.9120 O.2    30  ARG30      -0.2715
     30  CB        42.0150   18.1110   32.2890 C.3    30  ARG30       0.0348
     31  CG        41.1610   17.0310   31.7500 C.3    30  ARG30       0.0492
     32  CD        39.8650   17.5250   31.1360 C.3    30  ARG30       0.2205
     33  NE        39.2950   18.5650   31.9740 N.pl3  30  ARG30      -0.0865
     34  CZ        38.3770   19.4300   31.5670 C.cat  30  ARG30       0.5346
     35  NH1       37.9070   19.3540   30.3320 N.pl3  30  ARG30       0.1354
     36  NH2       37.9250   20.3750   32.3920 N.pl3  30  ARG30       0.1354
     37  N         44.3870   15.9670   31.3780 N.am   31  ILE31      -0.1977
     38  CA        44.9850   15.4550   30.1720 C.3    31  ILE31       0.1596
     39  C         44.0600   14.4210   29.5900 C.2    31  ILE31       0.2287
     40  O         43.5150   13.6170   30.2980 O.2    31  ILE31      -0.2864
     41  CB        46.4060   14.8830   30.3980 C.3    31  ILE31       0.0276
     42  CG1       46.9770   14.4150   29.0640 C.3    31  ILE31       0.0022
     43  CG2       46.4410   13.6890   31.3560 C.3    31  ILE31       0.0022
     44  CD1       48.4720   14.4290   29.0040 C.3    31  ILE31       0.0001
     45  N         42.3870   12.1340   32.4460 N.3    46  TYR46      -0.1241
     46  CA        42.7620   12.1190   33.8350 C.3    46  TYR46       0.1605
     47  C         42.7700   13.5680   34.3720 C.2    46  TYR46       0.2264
     48  O         43.4410   14.4160   33.8350 O.2    46  TYR46      -0.2867
     49  CB        44.1240   11.4650   33.9810 C.3    46  TYR46       0.0534
     50  CG        44.6980   11.5680   35.3630 C.ar   46  TYR46      -0.0201
     51  CD1       44.0820   10.9390   36.4460 C.ar   46  TYR46      -0.0009
     52  CD2       45.8660   12.2940   35.6010 C.ar   46  TYR46      -0.0009
     53  CE1       44.6180   11.0220   37.7330 C.ar   46  TYR46       0.0417
     54  CE2       46.3960   12.4080   36.8730 C.ar   46  TYR46       0.0417
     55  CZ        45.7680   11.7700   37.9340 C.ar   46  TYR46       0.1957
     56  OH        46.3020   11.8850   39.1860 O.3    46  TYR46      -0.2866
     57  N         42.9630   16.0740   38.0480 N.3    48  ARG48      -0.1245
     58  CA        43.3200   16.1140   39.4670 C.3    48  ARG48       0.1563
     59  C         43.0360   17.4990   40.0290 C.2    48  ARG48       0.2260
     60  O         43.6190   18.4820   39.5690 O.2    48  ARG48      -0.2867
     61  CB        44.7920   15.7740   39.6460 C.3    48  ARG48       0.0307
     62  CG        45.2140   15.4980   41.1060 C.3    48  ARG48       0.0489
     63  CD        45.6480   16.6980   41.9210 C.3    48  ARG48       0.2205
     64  NE        47.0330   17.1080   41.6760 N.pl3  48  ARG48      -0.0865
     65  CZ        47.4170   18.1890   40.9530 C.cat  48  ARG48       0.5346
     66  NH1       46.5400   19.0050   40.3640 N.pl3  48  ARG48       0.1354
     67  NH2       48.7150   18.4430   40.8060 N.pl3  48  ARG48       0.1354
     68  N         42.0210   25.2400   19.8870 N.3   124  LEU124     -0.1231
     69  CA        41.8720   25.7570   21.2310 C.3   124  LEU124      0.1693
     70  C         40.4690   25.3910   21.6680 C.2   124  LEU124      0.2592
     71  O         39.5790   25.2580   20.8390 O.2   124  LEU124     -0.2718
     72  CB        41.9690   27.2650   21.2050 C.3   124  LEU124      0.0284
     73  CG        43.2630   27.7810   20.6500 C.3   124  LEU124      0.0019
     74  CD1       43.1100   29.2440   20.3780 C.3   124  LEU124      0.0001
     75  CD2       44.4110   27.5040   21.6040 C.3   124  LEU124      0.0001
     76  N         40.2580   25.2970   22.9760 N.am  125  ASP125     -0.1960
     77  CA        39.0000   24.8010   23.5660 C.3   125  ASP125      0.1840
     78  C         38.6780   25.5410   24.8840 C.2   125  ASP125      0.2621
     79  O         39.4920   25.5770   25.7810 O.2   125  ASP125     -0.2715
     80  CB        39.1810   23.3190   23.8450 C.3   125  ASP125      0.1450
     81  CG        37.9150   22.6280   24.3150 C.2   125  ASP125      0.3671
     82  OD1       37.7490   21.4490   23.9540 O.co2 125  ASP125     -0.2456
     83  OD2       37.0610   23.1340   25.0950 O.co2 125  ASP125     -0.2456
     84  N         37.5050   26.1470   24.9800 N.am  126  ALA126     -0.1977
     85  CA        37.0800   26.8170   26.1970 C.3   126  ALA126      0.1597
     86  C         35.8850   26.0300   26.6620 C.2   126  ALA126      0.2287
     87  O         34.9020   25.9370   25.9250 O.2   126  ALA126     -0.2864
     88  CB        36.6880   28.2510   25.8960 C.3   126  ALA126      0.0319
     89  N         40.2650   25.8790   29.6600 N.3   149  ALA149     -0.1231
     90  CA        40.8670   26.4080   28.4610 C.3   149  ALA149      0.1694
     91  C         41.9690   25.4360   28.1460 C.2   149  ALA149      0.2593
     92  O         42.7620   25.1430   29.0200 O.2   149  ALA149     -0.2718
     93  CB        41.4440   27.7780   28.7200 C.3   149  ALA149      0.0304
     94  N         42.0380   24.9510   26.9100 N.am  150  GLY150     -0.1942
     95  CA        43.0260   23.9560   26.5540 C.3   150  GLY150      0.2014
     96  C         43.3950   23.9710   25.0880 C.2   150  GLY150      0.2638
     97  O         42.8390   24.7660   24.3280 O.2   150  GLY150     -0.2714
     98  N         44.3300   23.0810   24.7380 N.am  151  VAL151     -0.1977
     99  CA        44.8340   22.8340   23.3920 C.3   151  VAL151      0.1596
    100  C         44.7440   21.3740   23.0410 C.2   151  VAL151      0.2287
    101  O         45.0650   20.5230   23.8400 O.2   151  VAL151     -0.2864
    102  CB        46.3460   23.1570   23.2650 C.3   151  VAL151      0.0276
    103  CG1       46.7250   23.3680   21.7990 C.3   151  VAL151      0.0022
    104  CG2       46.6700   24.3740   24.0300 C.3   151  VAL151      0.0022
@<TRIPOS>BOND
     1    68    69    1
     2    74    73    1
     3    73    72    1
     4    73    75    1
     5    71    70    2
     6    72    69    1
     7    69    70    1
     8    70    76   am
     9   103   102    1
    10    76    77    1
    11   100    99    1
    12   100   101    2
    13   102    99    1
    14   102   104    1
    15    99    98    1
    16    77    80    1
    17    77    78    1
    18    80    81    1
    19    82    81   ar
    20    81    83   ar
    21    97    96    2
    22    98    96   am
    23    78    84   am
    24    78    79    2
    25    84    85    1
    26    96    95    1
    27    88    85    1
    28    87    86    2
    29    85    86    1
    30     1     2    1
    31    95    94    1
    32    94    91   am
    33     4     3    2
    34    12    11   ar
    35     2     5    1
    36     2     3    1
    37     3     6   am
    38    91    90    1
    39    91    92    2
    40    90    93    1
    41    90    89    1
    42    13    11   ar
    43    11    10    1
    44    44    42    1
    45    42    41    1
    46     6     7    1
    47    39    38    1
    48    39    40    2
    49     7    10    1
    50     7     8    1
    51    38    41    1
    52    38    37    1
    53    35    34    1
    54    41    43    1
    55    29    28    2
    56    32    31    1
    57    32    33    1
    58     8    14   am
    59     8     9    2
    60    37    28   am
    61    14    15    1
    62    34    33    2
    63    34    36    1
    64    28    27    1
    65    31    30    1
    66    30    27    1
    67    17    16    2
    68    45    46    1
    69    18    15    1
    70    15    16    1
    71    27    26    1
    72    26    21   am
    73    46    49    1
    74    46    47    1
    75    48    47    2
    76    49    50    1
    77    21    20    1
    78    21    22    2
    79    20    23    1
    80    20    19    1
    81    50    52   ar
    82    50    51   ar
    83    52    54   ar
    84    23    24    1
    85    51    53   ar
    86    19    25    1
    87    54    55   ar
    88    24    25    1
    89    53    55   ar
    90    55    56    1
    91    57    58    1
    92    58    61    1
    93    58    59    1
    94    60    59    2
    95    61    62    1
    96    66    65    1
    97    67    65    1
    98    65    64    2
    99    62    63    1
   100    64    63    1
