@<TRIPOS>MOLECULE
tmp/1p4uA00.pdb
 163 161 0 0 0
SMALL
GASTEIGER

@<TRIPOS>ATOM
      1  N         27.9620   50.9220   41.2580 N.3    65  VAL65      -0.1231
      2  CA        27.0120   51.1180   42.3430 C.3    65  VAL65       0.1692
      3  C         26.1870   52.3750   42.0880 C.2    65  VAL65       0.2592
      4  O         26.7330   53.4660   41.9470 O.2    65  VAL65      -0.2718
      5  CB        27.7300   51.2840   43.6960 C.3    65  VAL65       0.0266
      6  CG1       26.7000   51.5220   44.8010 C.3    65  VAL65       0.0020
      7  CG2       28.5680   50.0500   43.9960 C.3    65  VAL65       0.0020
      8  N         24.8720   52.2180   42.0130 N.am   66  LEU66      -0.1966
      9  CA        23.9920   53.3570   41.7940 C.3    66  LEU66       0.1728
     10  C         23.1990   53.6050   43.0590 C.2    66  LEU66       0.2616
     11  O         22.6970   52.6720   43.6700 O.2    66  LEU66      -0.2715
     12  CB        23.0070   53.0930   40.6470 C.3    66  LEU66       0.0311
     13  CG        22.0250   54.2480   40.4190 C.3    66  LEU66       0.0022
     14  CD1       22.8000   55.4940   40.0020 C.3    66  LEU66       0.0001
     15  CD2       20.9940   53.8690   39.3650 C.3    66  LEU66       0.0001
     16  N         23.0960   54.8650   43.4520 N.am   67  GLN67      -0.1963
     17  CA        22.3360   55.2380   44.6340 C.3    67  GLN67       0.1733
     18  C         21.5010   56.4550   44.2830 C.2    67  GLN67       0.2616
     19  O         21.9010   57.2640   43.4440 O.2    67  GLN67      -0.2715
     20  CB        23.2700   55.5840   45.7840 C.3    67  GLN67       0.0408
     21  CG        24.0380   54.4030   46.3370 C.3    67  GLN67       0.0908
     22  CD        24.9420   54.8230   47.4690 C.2    67  GLN67       0.2608
     23  OE1       26.0540   55.2970   47.2470 O.2    67  GLN67      -0.2717
     24  NE2       24.4580   54.6800   48.6940 N.am   67  GLN67      -0.0878
     25  N         20.3540   56.5990   44.9300 N.am   68  ALA68      -0.1963
     26  CA        19.4840   57.7270   44.6500 C.3    68  ALA68       0.1728
     27  C         18.9140   58.3420   45.9200 C.2    68  ALA68       0.2616
     28  O         18.8710   57.7000   46.9710 O.2    68  ALA68      -0.2715
     29  CB        18.3470   57.2890   43.7290 C.3    68  ALA68       0.0334
     30  N         18.4910   59.5970   45.8020 N.am   69  ALA69      -0.1963
     31  CA        17.8940   60.3380   46.9020 C.3    69  ALA69       0.1728
     32  C         16.6490   61.0000   46.3390 C.2    69  ALA69       0.2616
     33  O         16.6640   61.5060   45.2170 O.2    69  ALA69      -0.2715
     34  CB        18.8560   61.3940   47.4220 C.3    69  ALA69       0.0334
     35  N         15.5710   60.9760   47.1100 N.am   70  ALA70      -0.1964
     36  CA        14.3130   61.5770   46.6860 C.3    70  ALA70       0.1713
     37  C         13.8850   62.6480   47.6830 C.2    70  ALA70       0.2458
     38  O         14.3590   62.6640   48.8200 O.2    70  ALA70      -0.2730
     39  CB        13.2330   60.5040   46.5810 C.3    70  ALA70       0.0333
     40  N         12.9990   63.5700   47.2590 N.am   71  PRO71      -0.2716
     41  CA        12.5170   64.6320   48.1460 C.3    71  PRO71       0.1536
     42  C         11.9740   64.0010   49.4300 C.2    71  PRO71       0.2598
     43  O         11.4600   62.8780   49.4060 O.2    71  PRO71      -0.2715
     44  CB        11.4120   65.2840   47.3210 C.3    71  PRO71       0.0310
     45  CG        11.9210   65.1320   45.9210 C.3    71  PRO71       0.0237
     46  CD        12.4030   63.7020   45.9170 C.3    71  PRO71       0.0939
     47  N         12.0840   64.7260   50.5370 N.am   72  LYS72      -0.1978
     48  CA        11.6230   64.2630   51.8430 C.3    72  LYS72       0.1596
     49  C         10.1880   63.7340   51.8430 C.2    72  LYS72       0.2287
     50  O          9.8640   62.7810   52.5600 O.2    72  LYS72      -0.2864
     51  CB        11.7330   65.4030   52.8630 C.3    72  LYS72       0.0298
     52  CG        13.1400   65.9240   53.0680 C.3    72  LYS72       0.0038
     53  CD        13.9170   65.0180   54.0020 C.3    72  LYS72       0.0206
     54  CE        13.9960   65.5940   55.4200 C.3    72  LYS72       0.1093
     55  NZ        15.0070   66.6970   55.5170 N.3    72  LYS72      -0.1314
     56  N         12.3500   56.5420   48.0570 N.3    76  VAL76      -0.1231
     57  CA        12.9630   55.8640   46.9280 C.3    76  VAL76       0.1692
     58  C         13.6210   54.5740   47.4260 C.2    76  VAL76       0.2592
     59  O         14.1880   54.5300   48.5080 O.2    76  VAL76      -0.2718
     60  CB        14.0200   56.7700   46.2160 C.3    76  VAL76       0.0266
     61  CG1       15.1830   57.0740   47.1530 C.3    76  VAL76       0.0020
     62  CG2       14.5120   56.0960   44.9360 C.3    76  VAL76       0.0020
     63  N         13.5190   53.5130   46.6390 N.am   77  LYS77      -0.1966
     64  CA        14.1250   52.2460   47.0180 C.3    77  LYS77       0.1728
     65  C         14.7570   51.6110   45.7970 C.2    77  LYS77       0.2616
     66  O         14.1930   51.6460   44.7010 O.2    77  LYS77      -0.2715
     67  CB        13.0850   51.2870   47.6150 C.3    77  LYS77       0.0311
     68  CG        13.6390   49.8820   47.8930 C.3    77  LYS77       0.0038
     69  CD        12.5870   48.9460   48.4730 C.3    77  LYS77       0.0206
     70  CE        13.1040   47.5100   48.5350 C.3    77  LYS77       0.1093
     71  NZ        12.0470   46.5360   48.9920 N.3    77  LYS77      -0.1314
     72  N         15.9460   51.0500   45.9890 N.am   78  LEU78      -0.1963
     73  CA        16.6490   50.3860   44.9070 C.3    78  LEU78       0.1728
     74  C         16.7900   48.9190   45.2620 C.2    78  LEU78       0.2616
     75  O         17.3240   48.5670   46.3160 O.2    78  LEU78      -0.2715
     76  CB        18.0300   51.0180   44.6920 C.3    78  LEU78       0.0311
     77  CG        18.0720   52.3420   43.9100 C.3    78  LEU78       0.0022
     78  CD1       19.4050   53.0260   44.1120 C.3    78  LEU78       0.0001
     79  CD2       17.8360   52.0760   42.4300 C.3    78  LEU78       0.0001
     80  N         16.2750   48.0590   44.3960 N.am   79  GLN79      -0.1964
     81  CA        16.3770   46.6280   44.6090 C.3    79  GLN79       0.1718
     82  C         17.7890   46.2440   44.1560 C.2    79  GLN79       0.2458
     83  O         18.4650   47.0290   43.4940 O.2    79  GLN79      -0.2730
     84  CB        15.2950   45.9110   43.7890 C.3    79  GLN79       0.0407
     85  CG        13.8770   46.0640   44.3820 C.3    79  GLN79       0.0908
     86  CD        12.7640   45.5630   43.4560 C.2    79  GLN79       0.2608
     87  OE1       12.9940   44.7210   42.5850 O.2    79  GLN79      -0.2717
     88  NE2       11.5500   46.0720   43.6560 N.am   79  GLN79      -0.0878
     89  N         18.2660   45.0470   44.5240 N.am   80  PRO80      -0.2716
     90  CA        19.6190   44.6600   44.1000 C.3    80  PRO80       0.1521
     91  C         19.7290   44.6880   42.5730 C.2    80  PRO80       0.2440
     92  O         18.7660   44.3790   41.8720 O.2    80  PRO80      -0.2731
     93  CB        19.7660   43.2460   44.6590 C.3    80  PRO80       0.0310
     94  CG        18.8210   43.2410   45.8450 C.3    80  PRO80       0.0237
     95  CD        17.6310   43.9760   45.3110 C.3    80  PRO80       0.0939
     96  N         20.9060   45.0550   42.0410 N.am   81  PRO81      -0.2727
     97  CA        21.1210   45.1180   40.5920 C.3    81  PRO81       0.1402
     98  C         21.3370   43.7230   40.0130 C.2    81  PRO81       0.2269
     99  O         21.6580   42.7750   40.7410 O.2    81  PRO81      -0.2865
    100  CB        22.3850   45.9730   40.4500 C.3    81  PRO81       0.0296
    101  CG        22.6850   46.4800   41.8680 C.3    81  PRO81       0.0237
    102  CD        22.1330   45.4220   42.7620 C.3    81  PRO81       0.0939
    103  N         18.3150   47.4970   37.1310 N.3   100  GLN100     -0.1245
    104  CA        18.0900   47.6560   38.5600 C.3   100  GLN100      0.1566
    105  C         16.7260   48.2770   38.7600 C.2   100  GLN100      0.2260
    106  O         16.4330   49.3430   38.2110 O.2   100  GLN100     -0.2867
    107  CB        19.1590   48.5400   39.2080 C.3   100  GLN100      0.0367
    108  CG        19.0440   48.5470   40.7220 C.3   100  GLN100      0.0905
    109  CD        20.2530   49.1310   41.4230 C.2   100  GLN100      0.2608
    110  OE1       20.4700   48.8770   42.6160 O.2   100  GLN100     -0.2717
    111  NE2       21.0440   49.9260   40.6990 N.am  100  GLN100     -0.0878
    112  N         11.7650   64.7300   41.3480 N.3   113  ARG113     -0.1245
    113  CA        13.1490   65.0970   41.0850 C.3   113  ARG113      0.1563
    114  C         13.9150   63.9940   41.7880 C.2   113  ARG113      0.2260
    115  O         13.5590   63.5920   42.8910 O.2   113  ARG113     -0.2867
    116  CB        13.5110   66.4560   41.6890 C.3   113  ARG113      0.0307
    117  CG        13.2220   67.6270   40.7780 C.3   113  ARG113      0.0489
    118  CD        13.8870   68.8900   41.2880 C.3   113  ARG113      0.2205
    119  NE        13.5630   70.0520   40.4620 N.pl3 113  ARG113     -0.0865
    120  CZ        12.3410   70.5600   40.3310 C.cat 113  ARG113      0.5346
    121  NH1       11.3140   70.0120   40.9710 N.pl3 113  ARG113      0.1354
    122  NH2       12.1430   71.6230   39.5620 N.pl3 113  ARG113      0.1354
    123  N         17.8800   62.6160   42.7760 N.3   115  ARG115     -0.1231
    124  CA        19.3170   62.8220   42.7800 C.3   115  ARG115      0.1694
    125  C         19.9560   61.4590   42.7960 C.2   115  ARG115      0.2592
    126  O         19.3540   60.4830   43.2560 O.2   115  ARG115     -0.2718
    127  CB        19.7460   63.6180   44.0080 C.3   115  ARG115      0.0321
    128  CG        19.3900   65.0700   43.8980 C.3   115  ARG115      0.0489
    129  CD        19.6250   65.8000   45.1910 C.3   115  ARG115      0.2205
    130  NE        19.5140   67.2370   44.9910 N.pl3 115  ARG115     -0.0865
    131  CZ        19.7330   68.1380   45.9380 C.cat 115  ARG115      0.5346
    132  NH1       20.0730   67.7490   47.1610 N.pl3 115  ARG115      0.1354
    133  NH2       19.6280   69.4270   45.6540 N.pl3 115  ARG115      0.1354
    134  N         21.1800   61.3790   42.3000 N.am  116  TYR116     -0.1962
    135  CA        21.8460   60.1000   42.2780 C.3   116  TYR116      0.1771
    136  C         23.3440   60.2330   42.3900 C.2   116  TYR116      0.2619
    137  O         23.9190   61.2730   42.0730 O.2   116  TYR116     -0.2715
    138  CB        21.4940   59.3600   40.9920 C.3   116  TYR116      0.0574
    139  CG        22.1560   59.9230   39.7610 C.ar  116  TYR116     -0.0198
    140  CD1       23.5020   59.6580   39.4840 C.ar  116  TYR116     -0.0009
    141  CD2       21.4450   60.7310   38.8700 C.ar  116  TYR116     -0.0009
    142  CE1       24.1220   60.1830   38.3570 C.ar  116  TYR116      0.0417
    143  CE2       22.0560   61.2620   37.7340 C.ar  116  TYR116      0.0417
    144  CZ        23.3950   60.9840   37.4850 C.ar  116  TYR116      0.1957
    145  OH        24.0120   61.5110   36.3690 O.3   116  TYR116     -0.2866
    146  N         23.9720   59.1700   42.8710 N.am  117  LYS117     -0.1977
    147  CA        25.4160   59.1310   42.9690 C.3   117  LYS117      0.1596
    148  C         25.8070   57.8430   42.2660 C.2   117  LYS117      0.2287
    149  O         25.3320   56.7670   42.6180 O.2   117  LYS117     -0.2864
    150  CB        25.8830   59.0840   44.4190 C.3   117  LYS117      0.0298
    151  CG        27.4090   58.9980   44.5490 C.3   117  LYS117      0.0038
    152  CD        27.8330   58.7470   45.9840 C.3   117  LYS117      0.0206
    153  CE        29.3370   58.6220   46.1090 C.3   117  LYS117      0.1093
    154  NZ        29.6770   58.1690   47.4780 N.3   117  LYS117     -0.1314
    155  N         21.2130   65.0690   38.9150 N.3   132  GLU132     -0.1245
    156  CA        19.8100   65.2620   39.2470 C.3   132  GLU132      0.1567
    157  C         18.9760   65.0250   38.0030 C.2   132  GLU132      0.2260
    158  O         19.2860   65.5510   36.9350 O.2   132  GLU132     -0.2867
    159  CB        19.5460   66.6870   39.7250 C.3   132  GLU132      0.0388
    160  CG        19.6640   66.9130   41.2090 C.3   132  GLU132      0.1160
    161  CD        18.5920   67.8620   41.7180 C.2   132  GLU132      0.3649
    162  OE1       18.6990   68.3140   42.8760 O.co2 132  GLU132     -0.2457
    163  OE2       17.6350   68.1450   40.9630 O.co2 132  GLU132     -0.2457
@<TRIPOS>BOND
     1   145   144    1
     2   158   157    2
     3   103   104    1
     4   144   143   ar
     5   144   142   ar
     6   143   141   ar
     7   157   156    1
     8   106   105    2
     9   142   140   ar
    10   104   105    1
    11   104   107    1
    12   141   139   ar
    13   155   156    1
    14   107   108    1
    15   156   159    1
    16    15    13    1
    17   140   139   ar
    18   122   120    1
    19   159   160    1
    20   139   138    1
    21    14    13    1
    22    98    97    1
    23    98    99    2
    24   120   119    2
    25   120   121    1
    26    13    12    1
    27   100    97    1
    28   100   101    1
    29   119   118    1
    30    97    96    1
    31    12     9    1
    32   111   109   am
    33   108   109    1
    34   117   118    1
    35   117   116    1
    36   163   161   ar
    37   138   135    1
    38   113   112    1
    39   113   116    1
    40   113   114    1
    41   160   161    1
    42     1     2    1
    43   109   110    2
    44   161   162   ar
    45   114   115    2
    46     9     8    1
    47     9    10    1
    48   101   102    1
    49    92    91    2
    50     4     3    2
    51     8     3   am
    52    96    91   am
    53    96   102    1
    54   137   136    2
    55     3     2    1
    56   148   149    2
    57   148   147    1
    58   135   134    1
    59   135   136    1
    60   134   125   am
    61     2     5    1
    62   136   146   am
    63    79    77    1
    64    91    90    1
    65    87    86    2
    66   123   124    1
    67   124   125    1
    68   124   127    1
    69   125   126    2
    70   146   147    1
    71   147   150    1
    72    10    16   am
    73    10    11    2
    74    19    18    2
    75    16    17    1
    76    86    88   am
    77    86    85    1
    78    83    82    2
    79     5     7    1
    80     5     6    1
    81    29    26    1
    82    84    85    1
    83    84    81    1
    84   128   127    1
    85   128   129    1
    86    77    78    1
    87    77    76    1
    88    90    89    1
    89    90    93    1
    90    82    89   am
    91    82    81    1
    92    18    17    1
    93    18    25   am
    94    80    81    1
    95    80    74   am
    96   150   151    1
    97    89    95    1
    98   151   152    1
    99    17    20    1
   100    26    25    1
   101    26    27    1
   102    93    94    1
   103    76    73    1
   104    66    65    2
   105    73    74    1
   106    73    72    1
   107    62    60    1
   108   130   129    1
   109   130   131    2
   110    33    32    2
   111    74    75    2
   112    95    94    1
   113   133   131    1
   114    20    21    1
   115    65    72   am
   116    65    64    1
   117    30    27   am
   118    30    31    1
   119    46    45    1
   120    46    40    1
   121    27    28    2
   122    45    44    1
   123   131   132    1
   124   152   153    1
   125   153   154    1
   126    60    57    1
   127    60    61    1
   128    21    22    1
   129    32    31    1
   130    32    35   am
   131    39    36    1
   132    63    64    1
   133    63    58   am
   134    36    35    1
   135    36    37    1
   136    31    34    1
   137    57    58    1
   138    57    56    1
   139    64    67    1
   140    23    22    2
   141    40    37   am
   142    40    41    1
   143    44    41    1
   144    58    59    2
   145    22    24   am
   146    67    68    1
   147    37    38    2
   148    68    69    1
   149    41    42    1
   150    69    70    1
   151    70    71    1
   152    43    42    2
   153    42    47   am
   154    47    48    1
   155    49    48    1
   156    49    50    2
   157    48    51    1
   158    51    52    1
   159    52    53    1
   160    53    54    1
   161    54    55    1
