@<TRIPOS>MOLECULE
tmp/1p57B00.pdb
 154 152 0 0 0
SMALL
GASTEIGER

@<TRIPOS>ATOM
      1  N         15.7770    7.2060   28.3260 N.3    25  LEU25      -0.1231
      2  CA        15.4930    5.9250   29.0400 C.3    25  LEU25       0.1693
      3  C         14.7390    4.9420   28.1620 C.2    25  LEU25       0.2592
      4  O         15.0520    3.7660   28.1680 O.2    25  LEU25      -0.2718
      5  CB        14.6500    6.2120   30.3530 C.3    25  LEU25       0.0284
      6  CG        15.5540    6.5630   31.6120 C.3    25  LEU25       0.0019
      7  CD1       16.5000    7.7540   31.3950 C.3    25  LEU25       0.0001
      8  CD2       14.6710    6.9760   32.7860 C.3    25  LEU25       0.0001
      9  N         13.7770    5.4220   27.4350 N.am   26  CYS26      -0.1970
     10  CA        12.9780    4.5160   26.5530 C.3    26  CYS26       0.1712
     11  C         12.6310    5.0930   25.2100 C.2    26  CYS26       0.2296
     12  O         12.7370    6.2830   24.9660 O.2    26  CYS26      -0.2864
     13  CB        11.7320    4.1890   27.3080 C.3    26  CYS26       0.0983
     14  SG        11.8650    2.9670   28.6220 S.3    26  CYS26      -0.0798
     15  N          6.9470   -0.7420   31.7860 N.3    41  HIS41      -0.1241
     16  CA         8.1490   -0.7790   32.6460 C.3    41  HIS41       0.1621
     17  C          9.0340    0.4300   32.5400 C.2    41  HIS41       0.2264
     18  O         10.0240    0.5010   33.2400 O.2    41  HIS41      -0.2867
     19  CB         8.9600   -2.0900   32.3590 C.3    41  HIS41       0.0745
     20  CG        10.0080   -2.1380   31.2360 C.ar   41  HIS41       0.0817
     21  ND1        9.9110   -2.7810   30.0970 N.ar   41  HIS41      -0.2268
     22  CD2       11.2740   -1.5530   31.2160 C.ar   41  HIS41       0.1154
     23  CE1       10.9890   -2.6350   29.4120 C.ar   41  HIS41       0.1986
     24  NE2       11.8110   -1.9000   30.0820 N.ar   41  HIS41      -0.2212
     25  N         25.7880   -4.7630   24.7610 N.3   132  TYR132     -0.1241
     26  CA        25.2780   -4.8010   26.1380 C.3   132  TYR132      0.1605
     27  C         26.1860   -3.9450   27.0730 C.2   132  TYR132      0.2264
     28  O         25.6870   -3.1630   27.8680 O.2   132  TYR132     -0.2867
     29  CB        25.2470   -6.2390   26.6500 C.3   132  TYR132      0.0534
     30  CG        24.5750   -6.1700   28.0120 C.ar  132  TYR132     -0.0201
     31  CD1       23.2000   -6.3630   28.1700 C.ar  132  TYR132     -0.0009
     32  CD2       25.3410   -5.8830   29.1280 C.ar  132  TYR132     -0.0009
     33  CE1       22.6070   -6.2660   29.4220 C.ar  132  TYR132      0.0417
     34  CE2       24.7540   -5.7860   30.3690 C.ar  132  TYR132      0.0417
     35  CZ        23.3840   -5.9740   30.5400 C.ar  132  TYR132      0.1957
     36  OH        22.8360   -5.8690   31.8070 O.3   132  TYR132     -0.2866
     37  N         19.8350   -7.5860   17.5550 N.3   178  ASP178     -0.1225
     38  CA        18.7820   -7.5550   18.6010 C.3   178  ASP178      0.1805
     39  C         18.6370   -6.1580   19.1480 C.2   178  ASP178      0.2598
     40  O         19.4100   -5.2550   18.8850 O.2   178  ASP178     -0.2718
     41  CB        19.2090   -8.5310   19.7470 C.3   178  ASP178      0.1424
     42  CG        18.1820   -8.8400   20.8580 C.2   178  ASP178      0.3668
     43  OD1       16.9950   -8.5720   20.7360 O.co2 178  ASP178     -0.2456
     44  OD2       18.6800   -9.3720   21.8330 O.co2 178  ASP178     -0.2456
     45  N         17.6180   -6.0260   19.9240 N.am  179  ALA179     -0.1966
     46  CA        17.3190   -4.7510   20.5820 C.3   179  ALA179      0.1728
     47  C         18.1710   -4.8510   21.8890 C.2   179  ALA179      0.2616
     48  O         18.7210   -5.8990   22.1700 O.2   179  ALA179     -0.2715
     49  CB        15.8210   -4.6600   20.9290 C.3   179  ALA179      0.0334
     50  N         18.2490   -3.7850   22.6410 N.am  180  CYS180     -0.1954
     51  CA        19.0450   -3.8340   23.8740 C.3   180  CYS180      0.1843
     52  C         18.5600   -2.7440   24.8120 C.2   180  CYS180      0.2625
     53  O         17.6130   -2.0260   24.5460 O.2   180  CYS180     -0.2714
     54  CB        20.5530   -3.6720   23.4590 C.3   180  CYS180      0.0997
     55  SG        21.7740   -4.2590   24.6660 S.3   180  CYS180     -0.0797
     56  N         19.2380   -2.6410   25.9090 N.am  181  GLN181     -0.1963
     57  CA        18.9260   -1.6300   26.9650 C.3   181  GLN181      0.1733
     58  C         18.8700   -0.2140   26.3170 C.2   181  GLN181      0.2616
     59  O         19.7500    0.2280   25.6000 O.2   181  GLN181     -0.2715
     60  CB        20.0320   -1.7650   27.9920 C.3   181  GLN181      0.0408
     61  CG        19.6380   -1.0630   29.2290 C.3   181  GLN181      0.0908
     62  CD        20.7690   -1.2140   30.2760 C.2   181  GLN181      0.2608
     63  OE1       20.7780   -0.4530   31.2220 O.2   181  GLN181     -0.2717
     64  NE2       21.7050   -2.1300   30.1810 N.am  181  GLN181     -0.0878
     65  N         17.8190    0.4730   26.5950 N.am  182  GLY182     -0.1955
     66  CA        17.6160    1.8330   26.0460 C.3   182  GLY182      0.1869
     67  C         16.6330    1.7420   24.8620 C.2   182  GLY182      0.2309
     68  O         16.1680    2.7580   24.3710 O.2   182  GLY182     -0.2863
     69  N         13.8950   -0.2840   25.0250 N.3   184  SER184     -0.1217
     70  CA        12.5770   -0.6410   25.6280 C.3   184  SER184      0.1889
     71  C         11.4730    0.4250   25.3200 C.2   184  SER184      0.2288
     72  O         11.7640    1.6040   25.4080 O.2   184  SER184     -0.2866
     73  CB        12.6800   -0.7350   27.1380 C.3   184  SER184      0.2089
     74  OG        13.2940   -1.9930   27.4400 O.3   184  SER184     -0.2183
     75  N          9.1520   -3.1080   22.0300 N.3   206  VAL206     -0.1231
     76  CA        10.4000   -3.6950   22.6110 C.3   206  VAL206      0.1692
     77  C         10.1320   -3.8190   24.1240 C.2   206  VAL206      0.2593
     78  O          9.8820   -2.8210   24.7910 O.2   206  VAL206     -0.2718
     79  CB        11.5480   -2.7470   22.3660 C.3   206  VAL206      0.0266
     80  CG1       12.8480   -3.3720   22.9220 C.3   206  VAL206      0.0020
     81  CG2       11.7380   -2.5170   20.8690 C.3   206  VAL206      0.0020
     82  N         10.1870   -5.0270   24.6400 N.am  207  SER207     -0.1938
     83  CA         9.9370   -5.2530   26.0930 C.3   207  SER207      0.2055
     84  C         11.1640   -5.8100   26.9190 C.2   207  SER207      0.2643
     85  O         11.5530   -5.1790   27.8860 O.2   207  SER207     -0.2714
     86  CB         8.7040   -6.2180   26.1710 C.3   207  SER207      0.2130
     87  OG         8.3620   -6.3910   27.5460 O.3   207  SER207     -0.2179
     88  N         11.7300   -6.9310   26.5680 N.am  208  TRP208     -0.1959
     89  CA        12.8630   -7.4520   27.3500 C.3   208  TRP208      0.1771
     90  C         13.6460   -8.5270   26.5990 C.2   208  TRP208      0.2620
     91  O         13.3530   -8.8510   25.4650 O.2   208  TRP208     -0.2715
     92  CB        12.3280   -8.0300   28.7000 C.3   208  TRP208      0.0590
     93  CG        11.3110   -9.1940   28.5940 C.ar  208  TRP208      0.0006
     94  CD1        9.9720   -9.0380   28.3860 C.ar  208  TRP208      0.0946
     95  CD2       11.5750  -10.5380   28.7130 C.ar  208  TRP208      0.0152
     96  NE1        9.5000  -10.2680   28.3890 N.ar  208  TRP208     -0.2442
     97  CE2       10.3690  -11.2560   28.5780 C.ar  208  TRP208      0.0810
     98  CE3       12.7790  -11.2530   28.9320 C.ar  208  TRP208      0.0012
     99  CZ2       10.3820  -12.6570   28.6660 C.ar  208  TRP208      0.0191
    100  CZ3       12.7870  -12.6550   29.0190 C.ar  208  TRP208      0.0001
    101  CH2       11.5880  -13.3500   28.8860 C.ar  208  TRP208      0.0015
    102  N         14.6390   -9.0390   27.2730 N.am  209  GLY209     -0.1940
    103  CA        15.5000  -10.1060   26.6940 C.3   209  GLY209      0.2014
    104  C         16.6410  -10.4080   27.6850 C.2   209  GLY209      0.2640
    105  O         16.8790   -9.5990   28.5680 O.2   209  GLY209     -0.2714
    106  N         17.3000  -11.5240   27.5330 N.am  210  THR210     -0.1936
    107  CA        18.4190  -11.8690   28.4550 C.3   210  THR210      0.2028
    108  C         19.6460  -11.4060   27.7020 C.2   210  THR210      0.2643
    109  O         19.9140  -11.9310   26.6300 O.2   210  THR210     -0.2714
    110  CB        18.4100  -13.4220   28.7030 C.3   210  THR210      0.1808
    111  OG1       17.3130  -13.6020   29.5970 O.3   210  THR210     -0.2208
    112  CG2       19.6710  -13.9140   29.4750 C.3   210  THR210      0.0379
    113  N         20.3380  -10.4470   28.2800 N.am  211  GLY211     -0.1939
    114  CA        21.5640   -9.8840   27.6560 C.3   211  GLY211      0.2014
    115  C         21.0530   -9.2720   26.3590 C.2   211  GLY211      0.2639
    116  O         19.8920   -8.9010   26.3050 O.2   211  GLY211     -0.2714
    117  N         21.8980   -9.1670   25.3850 N.am  212  CYS212     -0.1967
    118  CA        21.4930   -8.6100   24.0810 C.3   212  CYS212      0.1712
    119  C         22.2870   -9.3290   23.0270 C.2   212  CYS212      0.2296
    120  O         23.4860   -9.4790   23.1800 O.2   212  CYS212     -0.2864
    121  CB        21.8090   -7.1230   23.9540 C.3   212  CYS212      0.0983
    122  SG        21.0770   -6.0820   25.2010 S.3   212  CYS212     -0.0798
    123  N         18.6040  -16.4400   22.7550 N.3   217  LYS217     -0.1245
    124  CA        17.9770  -15.5090   23.7640 C.3   217  LYS217      0.1561
    125  C         17.5550  -14.2580   22.9220 C.2   217  LYS217      0.2260
    126  O         18.1360  -13.1840   23.0140 O.2   217  LYS217     -0.2867
    127  CB        18.9830  -15.1050   24.8570 C.3   217  LYS217      0.0271
    128  CG        19.3010  -16.3650   25.6940 C.3   217  LYS217      0.0035
    129  CD        18.0400  -16.8650   26.4930 C.3   217  LYS217      0.0206
    130  CE        18.3430  -18.2290   27.1530 C.3   217  LYS217      0.1093
    131  NZ        18.6560  -19.2650   26.1140 N.3   217  LYS217     -0.1314
    132  N         14.9980  -11.2230   21.3330 N.3   219  GLY219     -0.1210
    133  CA        14.2900  -10.1810   22.1180 C.3   219  GLY219      0.1956
    134  C         12.7960  -10.5700   22.1720 C.2   219  GLY219      0.2612
    135  O         12.3040  -11.2270   21.2640 O.2   219  GLY219     -0.2717
    136  N         12.1580  -10.1410   23.2330 N.am  220  VAL220     -0.1965
    137  CA        10.7260  -10.4030   23.4830 C.3   220  VAL220      0.1727
    138  C         10.0050   -9.0500   23.3630 C.2   220  VAL220      0.2616
    139  O         10.4460   -8.0000   23.8290 O.2   220  VAL220     -0.2715
    140  CB        10.5720  -11.0190   24.8850 C.3   220  VAL220      0.0290
    141  CG1        9.1530  -11.5880   25.0100 C.3   220  VAL220      0.0023
    142  CG2       11.6350  -12.1710   25.1100 C.3   220  VAL220      0.0023
    143  N          8.8730   -9.1440   22.7250 N.am  221  TYR221     -0.1974
    144  CA         8.0240   -7.9710   22.4710 C.3   221  TYR221      0.1639
    145  C          6.6030   -8.1800   22.9380 C.2   221  TYR221      0.2290
    146  O          6.1230   -9.3000   23.0190 O.2   221  TYR221     -0.2864
    147  CB         8.0190   -7.7050   20.9530 C.3   221  TYR221      0.0560
    148  CG         9.4140   -7.4780   20.3830 C.ar  221  TYR221     -0.0198
    149  CD1       10.3000   -8.5370   20.2180 C.ar  221  TYR221     -0.0009
    150  CD2        9.8300   -6.1980   20.0560 C.ar  221  TYR221     -0.0009
    151  CE1       11.5680   -8.3280   19.7500 C.ar  221  TYR221      0.0417
    152  CE2       11.1100   -5.9930   19.5840 C.ar  221  TYR221      0.0417
    153  CZ        11.9930   -7.0560   19.4300 C.ar  221  TYR221      0.1957
    154  OH        13.2800   -6.8510   18.9790 O.3   221  TYR221     -0.2866
@<TRIPOS>BOND
     1    37    38    1
     2    38    39    1
     3    38    41    1
     4    40    39    2
     5   154   153    1
     6    39    45   am
     7   153   152   ar
     8   153   151   ar
     9   152   150   ar
    10    41    42    1
    11   151   149   ar
    12    45    46    1
    13   150   148   ar
    14   149   148   ar
    15   148   147    1
    16    46    49    1
    17    46    47    1
    18    43    42   ar
    19    42    44   ar
    20    81    79    1
    21   147   144    1
    22   135   134    2
    23   132   133    1
    24    47    48    2
    25    47    50   am
    26    75    76    1
    27   133   134    1
    28   134   136   am
    29    79    76    1
    30    79    80    1
    31   144   143    1
    32   144   145    1
    33    76    77    1
    34    50    51    1
    35   143   138   am
    36   123   124    1
    37   125   126    2
    38   125   124    1
    39   145   146    2
    40   119   120    2
    41   119   118    1
    42   136   137    1
    43   138   137    1
    44   138   139    2
    45    54    51    1
    46    54    55    1
    47   137   140    1
    48   124   127    1
    49    51    52    1
    50   121   118    1
    51   121   122    1
    52   118   117    1
    53    77    82   am
    54    77    78    2
    55    68    67    2
    56    53    52    2
    57    82    83    1
    58    55   122    1
    59    25    26    1
    60    52    56   am
    61   127   128    1
    62    67    66    1
    63   140   141    1
    64   140   142    1
    65    12    11    2
    66    69    70    1
    67    11    10    1
    68    71    72    2
    69    71    70    1
    70   117   115   am
    71    91    90    2
    72    59    58    2
    73    70    73    1
    74   128   129    1
    75    56    57    1
    76    66    65    1
    77    83    86    1
    78    83    84    1
    79   131   130    1
    80    26    29    1
    81    26    27    1
    82    86    87    1
    83   116   115    2
    84    58    65   am
    85    58    57    1
    86   115   114    1
    87   129   130    1
    88    10    13    1
    89    10     9    1
    90    88    84   am
    91    88    89    1
    92    90   102   am
    93    90    89    1
    94   109   108    2
    95    29    30    1
    96   103   102    1
    97   103   104    1
    98    84    85    2
    99    57    60    1
   100    27    28    2
   101    73    74    1
   102    13    14    1
   103    89    92    1
   104     9     3   am
   105   106   104   am
   106   106   107    1
   107   114   113    1
   108   104   105    2
   109   108   113   am
   110   108   107    1
   111    60    61    1
   112    30    31   ar
   113    30    32   ar
   114     3     4    2
   115     3     2    1
   116    31    33   ar
   117     1     2    1
   118    94    96   ar
   119    94    93   ar
   120    96    97   ar
   121   107   110    1
   122    97    99   ar
   123    97    95   ar
   124    93    92    1
   125    93    95   ar
   126    99   101   ar
   127   110   112    1
   128   110   111    1
   129    95    98   ar
   130   101   100   ar
   131    98   100   ar
   132     2     5    1
   133    32    34   ar
   134    61    62    1
   135    23    24   ar
   136    23    21   ar
   137    33    35   ar
   138    24    22   ar
   139    21    20   ar
   140    64    62   am
   141    62    63    2
   142     5     6    1
   143    34    35   ar
   144    35    36    1
   145    22    20   ar
   146    20    19    1
   147     7     6    1
   148     6     8    1
   149    15    16    1
   150    19    16    1
   151    17    16    1
   152    17    18    2
