@<TRIPOS>MOLECULE
tmp/1p5dA00.pdb
 172 161 0 0 0
SMALL
GASTEIGER

@<TRIPOS>ATOM
      1  N        -44.3910   -7.9950   10.6970 N.3     9  TYR9       -0.1227
      2  CA       -44.8420   -8.9910    9.7240 C.3     9  TYR9        0.1736
      3  C        -45.7430   -8.4170    8.6570 C.2     9  TYR9        0.2595
      4  O        -45.8930   -9.0130    7.5860 O.2     9  TYR9       -0.2718
      5  CB       -45.6480  -10.1030   10.3900 C.3     9  TYR9        0.0548
      6  CG       -45.0710  -10.7040   11.6500 C.ar    9  TYR9       -0.0200
      7  CD1      -43.7090  -10.8920   11.8120 C.ar    9  TYR9       -0.0009
      8  CD2      -45.9140  -11.0990   12.6740 C.ar    9  TYR9       -0.0009
      9  CE1      -43.2030  -11.4460   12.9630 C.ar    9  TYR9        0.0417
     10  CE2      -45.4240  -11.6590   13.8250 C.ar    9  TYR9        0.0417
     11  CZ       -44.0650  -11.8210   13.9700 C.ar    9  TYR9        0.1957
     12  OH       -43.5910  -12.3750   15.1530 O.3     9  TYR9       -0.2866
     13  N        -46.2870   -7.2360    8.9060 N.am   10  ASP10      -0.1974
     14  CA       -47.3470   -6.6880    8.0770 C.3    10  ASP10       0.1709
     15  C        -47.8720   -5.3960    8.7130 C.2    10  ASP10       0.2293
     16  O        -47.2500   -4.8850    9.6510 O.2    10  ASP10      -0.2864
     17  CB       -48.4700   -7.7190    7.9280 C.3    10  ASP10       0.1436
     18  CG       -48.8230   -8.4120    9.2410 C.2    10  ASP10       0.3671
     19  OD1      -48.7240   -7.7880   10.3300 O.co2  10  ASP10      -0.2456
     20  OD2      -49.1860   -9.5950    9.2690 O.co2  10  ASP10      -0.2456
     21  N        -51.1730   -3.4610   10.5400 N.3    12  ARG12      -0.1245
     22  CA       -52.4310   -3.7040   11.2250 C.3    12  ARG12       0.1563
     23  C        -52.7550   -2.5480   12.1430 C.2    12  ARG12       0.2260
     24  O        -51.8840   -1.9750   12.8080 O.2    12  ARG12      -0.2867
     25  CB       -52.4080   -5.0120   12.0120 C.3    12  ARG12       0.0307
     26  CG       -53.7390   -5.3560   12.7300 C.3    12  ARG12       0.0489
     27  CD       -54.4360   -6.6090   12.2320 C.3    12  ARG12       0.2205
     28  NE       -53.4900   -7.7300   12.1980 N.pl3  12  ARG12      -0.0865
     29  CZ       -53.3700   -8.6300   11.2260 C.cat  12  ARG12       0.5346
     30  NH1      -54.1310   -8.5910   10.1440 N.pl3  12  ARG12       0.1354
     31  NH2      -52.4560   -9.5810   11.3360 N.pl3  12  ARG12       0.1354
     32  N        -57.2360  -12.5660   13.0770 N.3   100  HIS100     -0.1241
     33  CA       -58.1250  -13.1450   14.0910 C.3   100  HIS100      0.1621
     34  C        -58.5880  -12.0870   15.1170 C.2   100  HIS100      0.2264
     35  O        -59.2250  -12.4230   16.1250 O.2   100  HIS100     -0.2867
     36  CB       -57.3950  -14.2610   14.8390 C.3   100  HIS100      0.0745
     37  CG       -56.2760  -13.7680   15.7090 C.ar  100  HIS100      0.0817
     38  ND1      -54.9510  -13.8390   15.3280 N.ar  100  HIS100     -0.2268
     39  CD2      -56.2860  -13.1630   16.9220 C.ar  100  HIS100      0.1154
     40  CE1      -54.1940  -13.3140   16.2770 C.ar  100  HIS100      0.1986
     41  NE2      -54.9790  -12.8910   17.2520 N.ar  100  HIS100     -0.2212
     42  N        -51.4550   -7.6550    4.4620 N.3   109  LYS109     -0.1245
     43  CA       -50.3820   -8.6510    4.2910 C.3   109  LYS109      0.1561
     44  C        -49.9220   -8.5160    2.8400 C.2   109  LYS109      0.2260
     45  O        -50.7380   -8.4810    1.9330 O.2   109  LYS109     -0.2867
     46  CB       -50.8750  -10.0630    4.6350 C.3   109  LYS109      0.0271
     47  CG       -51.2340  -10.1960    6.0990 C.3   109  LYS109      0.0035
     48  CD       -51.8560  -11.5290    6.4450 C.3   109  LYS109      0.0206
     49  CE       -52.0880  -11.6350    7.9230 C.3   109  LYS109      0.1093
     50  NZ       -52.5040  -13.0090    8.3290 N.3   109  LYS109     -0.1314
     51  N        -54.6820  -19.9290    9.4050 N.3   238  ARG238     -0.1245
     52  CA       -54.4280  -20.7690   10.5900 C.3   238  ARG238      0.1563
     53  C        -55.4340  -21.9100   10.6250 C.2   238  ARG238      0.2260
     54  O        -56.5460  -21.7790   10.1070 O.2   238  ARG238     -0.2867
     55  CB       -54.5770  -19.9890   11.9050 C.3   238  ARG238      0.0307
     56  CG       -53.6200  -18.8280   12.1350 C.3   238  ARG238      0.0489
     57  CD       -53.8680  -18.0790   13.4600 C.3   238  ARG238      0.2205
     58  NE       -52.8640  -17.0400   13.7050 N.pl3 238  ARG238     -0.0865
     59  CZ       -52.5720  -16.5300   14.9000 C.cat 238  ARG238      0.5346
     60  NH1      -53.2090  -16.9430   15.9950 N.pl3 238  ARG238      0.1354
     61  NH2      -51.6360  -15.5960   15.0080 N.pl3 238  ARG238      0.1354
     62  N        -41.0980  -22.8420   14.1570 N.3   274  ASP274     -0.1239
     63  CA       -40.6770  -21.6990   14.9690 C.3   274  ASP274      0.1674
     64  C        -40.2360  -22.0620   16.3700 C.2   274  ASP274      0.2266
     65  O        -40.4250  -23.1910   16.8430 O.2   274  ASP274     -0.2867
     66  CB       -41.7180  -20.5770   14.9650 C.3   274  ASP274      0.1410
     67  CG       -42.9480  -20.8650   15.8230 C.2   274  ASP274      0.3668
     68  OD1      -43.4750  -21.9900   15.7670 O.co2 274  ASP274     -0.2456
     69  OD2      -43.4630  -20.0030   16.5710 O.co2 274  ASP274     -0.2456
     70  N        -41.3960  -21.4720   19.1600 N.3   276  LYS276     -0.1245
     71  CA       -42.4470  -21.8550   20.1080 C.3   276  LYS276      0.1561
     72  C        -42.8350  -23.3330   20.0420 C.2   276  LYS276      0.2260
     73  O        -43.6850  -23.7560   20.8260 O.2   276  LYS276     -0.2867
     74  CB       -43.7020  -21.0120   19.9240 C.3   276  LYS276      0.0271
     75  CG       -43.5290  -19.5470   20.3140 C.3   276  LYS276      0.0035
     76  CD       -44.6420  -18.6080   19.8040 C.3   276  LYS276      0.0206
     77  CE       -46.0290  -19.1160   20.1270 C.3   276  LYS276      0.1093
     78  NZ       -47.0910  -18.3080   19.4340 N.3   276  LYS276     -0.1314
     79  N        -40.4220  -16.9170   15.0280 N.3   297  THR297     -0.1203
     80  CA       -41.8790  -16.8170   14.9520 C.3   297  THR297      0.1994
     81  C        -42.2870  -15.6630   14.0180 C.2   297  THR297      0.2618
     82  O        -41.6120  -14.6360   13.9610 O.2   297  THR297     -0.2717
     83  CB       -42.3800  -16.5150   16.3780 C.3   297  THR297      0.1784
     84  OG1      -42.1070  -17.6190   17.2530 O.3   297  THR297     -0.2211
     85  CG2      -43.8770  -16.2870   16.4500 C.3   297  THR297      0.0376
     86  N        -43.3980  -15.8380   13.3170 N.am  298  GLY298     -0.1942
     87  CA       -43.9370  -14.8230   12.4250 C.3   298  GLY298      0.2014
     88  C        -44.0650  -15.3100   11.0010 C.2   298  GLY298      0.2638
     89  O        -43.0860  -15.7030   10.3810 O.2   298  GLY298     -0.2714
     90  N        -45.2790  -15.2350   10.4620 N.am  299  HIS299     -0.1973
     91  CA       -45.5750  -15.8710    9.1920 C.3   299  HIS299      0.1656
     92  C        -44.6770  -15.3540    8.0730 C.2   299  HIS299      0.2291
     93  O        -44.1320  -16.1400    7.3150 O.2   299  HIS299     -0.2864
     94  CB       -47.0500  -15.7170    8.8400 C.3   299  HIS299      0.0771
     95  CG       -47.4630  -14.3270    8.4990 C.ar  299  HIS299      0.0820
     96  ND1      -47.6980  -13.9290    7.2030 N.ar  299  HIS299     -0.2267
     97  CD2      -47.6500  -13.2290    9.2720 C.ar  299  HIS299      0.1154
     98  CE1      -48.0700  -12.6600    7.1970 C.ar  299  HIS299      0.1986
     99  NE2      -48.0520  -12.2120    8.4390 N.ar  299  HIS299     -0.2212
    100  N        -45.7450  -23.1440   12.2900 N.3   316  GLU316     -0.1245
    101  CA       -45.6650  -22.4220   13.5350 C.3   316  GLU316      0.1567
    102  C        -46.6260  -22.9760   14.5710 C.2   316  GLU316      0.2260
    103  O        -47.6860  -23.5320   14.2420 O.2   316  GLU316     -0.2867
    104  CB       -46.0490  -20.9870   13.3170 C.3   316  GLU316      0.0388
    105  CG       -45.2030  -20.2180   12.3300 C.3   316  GLU316      0.1160
    106  CD       -45.5010  -18.7490   12.4450 C.2   316  GLU316      0.3649
    107  OE1      -44.9340  -18.1360   13.3700 O.co2 316  GLU316     -0.2457
    108  OE2      -46.3530  -18.2220   11.7180 O.co2 316  GLU316     -0.2457
    109  N        -48.5990  -21.3610   16.2410 N.3   318  SER318     -0.1217
    110  CA       -49.8600  -20.6400   16.1390 C.3   318  SER318      0.1889
    111  C        -50.8090  -21.2810   15.1550 C.2   318  SER318      0.2288
    112  O        -51.9720  -20.9370   15.1650 O.2   318  SER318     -0.2866
    113  CB       -49.6360  -19.1950   15.7100 C.3   318  SER318      0.2089
    114  OG       -48.9470  -19.1490   14.4740 O.3   318  SER318     -0.2183
    115  N        -50.1420  -21.5360   11.6390 N.3   320  HIS320     -0.1241
    116  CA       -49.7500  -21.2550   10.2700 C.3   320  HIS320      0.1621
    117  C        -48.9040  -22.4430    9.7930 C.2   320  HIS320      0.2264
    118  O        -47.8470  -22.7200   10.3730 O.2   320  HIS320     -0.2867
    119  CB       -48.9000  -19.9590   10.1240 C.3   320  HIS320      0.0745
    120  CG       -49.6160  -18.6840   10.4640 C.ar  320  HIS320      0.0817
    121  ND1      -50.4080  -18.0090    9.5600 N.ar  320  HIS320     -0.2268
    122  CD2      -49.5320  -17.8750   11.5480 C.ar  320  HIS320      0.1154
    123  CE1      -50.9080  -16.9220   10.1320 C.ar  320  HIS320      0.1986
    124  NE2      -50.3860  -16.8120   11.3370 N.ar  320  HIS320     -0.2212
    125  N        -49.2850  -20.9630   26.4960 N.3   366  GLU366     -0.1245
    126  CA       -48.5010  -19.7610   26.2330 C.3   366  GLU366      0.1567
    127  C        -48.6390  -18.8240   27.4360 C.2   366  GLU366      0.2260
    128  O        -49.7210  -18.6720   27.9870 O.2   366  GLU366     -0.2867
    129  CB       -48.9760  -19.0740   24.9430 C.3   366  GLU366      0.0388
    130  CG       -48.2120  -17.8000   24.5710 C.3   366  GLU366      0.1160
    131  CD       -48.5530  -17.2570   23.1910 C.2   366  GLU366      0.3649
    132  OE1      -48.8390  -18.0820   22.2900 O.co2 366  GLU366     -0.2457
    133  OE2      -48.5270  -16.0030   22.9870 O.co2 366  GLU366     -0.2457
    134  N        -39.4430  -14.4920   24.3500 N.3   412  ARG412     -0.1245
    135  CA       -39.2580  -13.6710   23.1450 C.3   412  ARG412      0.1563
    136  C        -40.2470  -12.5070   23.1800 C.2   412  ARG412      0.2260
    137  O        -41.2070  -12.5380   23.9490 O.2   412  ARG412     -0.2867
    138  CB       -39.4330  -14.5150   21.8760 C.3   412  ARG412      0.0307
    139  CG       -40.7980  -15.1090   21.6750 C.3   412  ARG412      0.0489
    140  CD       -40.9680  -15.7180   20.3120 C.3   412  ARG412      0.2205
    141  NE       -41.2010  -14.7480   19.2490 N.pl3 412  ARG412     -0.0865
    142  CZ       -42.3830  -14.1950   18.9940 C.cat 412  ARG412      0.5346
    143  NH1      -43.4170  -14.4450   19.7720 N.pl3 412  ARG412      0.1354
    144  NH2      -42.5050  -13.3800   17.9640 N.pl3 412  ARG412      0.1354
    145  N        -43.2440  -10.5250   21.4350 N.3   414  SER414     -0.1202
    146  CA       -44.2800  -10.5370   20.4140 C.3   414  SER414      0.2020
    147  C        -44.0470   -9.3600   19.4490 C.2   414  SER414      0.2619
    148  O        -43.6170   -8.2770   19.8680 O.2   414  SER414     -0.2717
    149  CB       -45.6640  -10.4160   21.0680 C.3   414  SER414      0.2103
    150  OG       -46.6660  -10.1220   20.0950 O.3   414  SER414     -0.2182
    151  N        -44.3530   -9.5640   18.1750 N.am  415  ASN415     -0.1960
    152  CA       -44.3200   -8.5000   17.1660 C.3   415  ASN415      0.1819
    153  C        -45.7250   -8.0570   16.7470 C.2   415  ASN415      0.2621
    154  O        -45.8900   -7.4070   15.6950 O.2   415  ASN415     -0.2715
    155  CB       -43.5430   -8.9570   15.9370 C.3   415  ASN415      0.1195
    156  CG       -42.0910   -9.2320   16.2560 C.2   415  ASN415      0.2630
    157  OD1      -41.6040  -10.3890   16.1830 O.2   415  ASN415     -0.2716
    158  ND2      -41.3910   -8.1900   16.6560 N.am  415  ASN415     -0.0877
    159  N        -46.7320   -8.4680   17.5130 N.am  416  THR416     -0.1951
    160  CA       -48.1170   -8.0370   17.2400 C.3   416  THR416      0.1897
    161  C        -48.7640   -7.3300   18.3990 C.2   416  THR416      0.2313
    162  O        -49.8210   -6.7030   18.2230 O.2   416  THR416     -0.2863
    163  CB       -49.0120   -9.2080   16.8330 C.3   416  THR416      0.1794
    164  OG1      -49.1840  -10.1430   17.9150 O.3   416  THR416     -0.2208
    165  CG2      -48.4120   -9.9670   15.6850 C.3   416  THR416      0.0378
    166  N        -43.4990  -13.2320   25.4180 N.3   421  VAL421     -0.1245
    167  CA       -44.1390  -14.5170   25.2050 C.3   421  VAL421      0.1561
    168  C        -43.1920  -15.5900   25.7670 C.2   421  VAL421      0.2260
    169  O        -42.0190  -15.5710   25.4470 O.2   421  VAL421     -0.2867
    170  CB       -44.3110  -14.7410   23.7010 C.3   421  VAL421      0.0252
    171  CG1      -44.7810  -16.1530   23.3830 C.3   421  VAL421      0.0019
    172  CG2      -45.2650  -13.7000   23.0950 C.3   421  VAL421      0.0019
@<TRIPOS>BOND
     1    45    44    2
     2    44    43    1
     3    43    42    1
     4    43    46    1
     5    46    47    1
     6    47    48    1
     7    48    49    1
     8    98    96   ar
     9    98    99   ar
    10    96    95   ar
    11    93    92    2
    12     4     3    2
    13    49    50    1
    14    17    14    1
    15    17    18    1
    16    92    91    1
    17    14    15    1
    18    14    13    1
    19    99    97   ar
    20    95    94    1
    21    95    97   ar
    22     3    13   am
    23     3     2    1
    24    15    16    2
    25    94    91    1
    26    91    90    1
    27    18    20   ar
    28    18    19   ar
    29    51    52    1
    30   121   123   ar
    31   121   120   ar
    32     2     5    1
    33     2     1    1
    34   117   116    1
    35   117   118    2
    36    54    53    2
    37   119   116    1
    38   119   120    1
    39   123   124   ar
    40    30    29    1
    41   116   115    1
    42    89    88    2
    43     5     6    1
    44    90    88   am
    45   120   122   ar
    46    21    22    1
    47    52    53    1
    48    52    55    1
    49    88    87    1
    50    22    25    1
    51    22    23    1
    52    29    31    1
    53    29    28    2
    54   124   122   ar
    55     6     7   ar
    56     6     8   ar
    57   108   106   ar
    58     7     9   ar
    59    55    56    1
    60    25    26    1
    61    56    57    1
    62    23    24    2
    63    28    27    1
    64    27    26    1
    65   100   101    1
    66   105   106    1
    67   105   104    1
    68    87    86    1
    69   106   107   ar
    70     8    10   ar
    71     9    11   ar
    72    32    33    1
    73    86    81   am
    74   104   101    1
    75    57    58    1
    76   101   102    1
    77    58    59    2
    78    10    11   ar
    79    82    81    2
    80    11    12    1
    81    81    80    1
    82    33    36    1
    83    33    34    1
    84    62    63    1
    85   103   102    2
    86   114   113    1
    87    36    37    1
    88    59    61    1
    89    59    60    1
    90    80    79    1
    91    80    83    1
    92    66    63    1
    93    66    67    1
    94    63    64    1
    95    34    35    2
    96   111   112    2
    97   111   110    1
    98    38    37   ar
    99    38    40   ar
   100   165   163    1
   101   154   153    2
   102    37    39   ar
   103   113   110    1
   104    68    67   ar
   105    67    69   ar
   106   155   156    1
   107   155   152    1
   108   110   109    1
   109   157   156    2
   110   156   158   am
   111    40    41   ar
   112    64    65    2
   113    83    85    1
   114    83    84    1
   115   153   152    1
   116   153   159   am
   117   163   160    1
   118   163   164    1
   119    39    41   ar
   120   152   151    1
   121   160   159    1
   122   160   161    1
   123   144   142    1
   124   151   147   am
   125   162   161    2
   126   142   141    2
   127   142   143    1
   128    70    71    1
   129   141   140    1
   130    78    77    1
   131   147   148    2
   132   147   146    1
   133    76    77    1
   134    76    75    1
   135    74    71    1
   136    74    75    1
   137    72    71    1
   138    72    73    2
   139   150   149    1
   140   140   139    1
   141   146   149    1
   142   146   145    1
   143   139   138    1
   144   138   135    1
   145   132   131   ar
   146   133   131   ar
   147   172   170    1
   148   135   136    1
   149   135   134    1
   150   136   137    2
   151   131   130    1
   152   171   170    1
   153   170   167    1
   154   130   129    1
   155   129   126    1
   156   167   166    1
   157   167   168    1
   158   169   168    2
   159   126   125    1
   160   126   127    1
   161   127   128    2
