@<TRIPOS>MOLECULE
tmp/1p5eA00.pdb
 98 90 0 0 0
SMALL
GASTEIGER

@<TRIPOS>ATOM
      1  N          2.3260   46.5730   45.4460 N.3    11  ILE11      -0.1231
      2  CA         2.5630   45.3350   46.2100 C.3    11  ILE11       0.1692
      3  C          2.1090   45.3750   47.6750 C.2    11  ILE11       0.2593
      4  O          2.0940   44.3470   48.3630 O.2    11  ILE11      -0.2718
      5  CB         4.0500   44.8800   46.1240 C.3    11  ILE11       0.0266
      6  CG1        5.0020   46.0020   46.5470 C.3    11  ILE11       0.0019
      7  CG2        4.3900   44.3580   44.7180 C.3    11  ILE11       0.0020
      8  CD1        6.4210   45.5110   46.8680 C.3    11  ILE11       0.0001
      9  N          1.7510   46.5590   48.1510 N.am   12  GLY12      -0.1942
     10  CA         1.2410   46.7190   49.4980 C.3    12  GLY12       0.2014
     11  C          0.8210   48.1480   49.7340 C.2    12  GLY12       0.2638
     12  O          0.8200   48.9620   48.8070 O.2    12  GLY12      -0.2714
     13  N          0.4700   48.4530   50.9780 N.am   13  GLU13      -0.1977
     14  CA         0.0740   49.7980   51.3750 C.3    13  GLU13       0.1602
     15  C          0.1460   49.9670   52.8910 C.2    13  GLU13       0.2287
     16  O         -0.0020   49.0010   53.6440 O.2    13  GLU13      -0.2864
     17  CB        -1.3290   50.1550   50.8440 C.3    13  GLU13       0.0415
     18  CG        -2.4510   49.2560   51.3400 C.3    13  GLU13       0.1163
     19  CD        -3.7910   49.5440   50.6770 C.2    13  GLU13       0.3649
     20  OE1       -4.1440   50.7410   50.4880 O.co2  13  GLU13      -0.2457
     21  OE2       -4.5020   48.5650   50.3560 O.co2  13  GLU13      -0.2457
     22  N          2.8700   50.8560   48.5500 N.3    19  VAL19      -0.1245
     23  CA         4.2200   50.3990   48.2760 C.3    19  VAL19       0.1561
     24  C          4.2160   49.8360   46.8620 C.2    19  VAL19       0.2260
     25  O          3.3420   49.0440   46.5170 O.2    19  VAL19      -0.2867
     26  CB         4.6790   49.3380   49.3220 C.3    19  VAL19       0.0252
     27  CG1        6.0210   48.7180   48.9510 C.3    19  VAL19       0.0019
     28  CG2        4.7430   49.9590   50.7220 C.3    19  VAL19       0.0019
     29  N         11.5260   47.9150   46.4630 N.3    32  ALA32      -0.1245
     30  CA        10.2060   48.3090   46.9260 C.3    32  ALA32       0.1562
     31  C         10.2400   49.7920   47.2740 C.2    32  ALA32       0.2260
     32  O         11.1640   50.2580   47.9430 O.2    32  ALA32      -0.2867
     33  CB         9.7870   47.4840   48.1260 C.3    32  ALA32       0.0290
     34  N          8.3080   52.6830   49.2010 N.3    34  LYS34      -0.1245
     35  CA         7.2950   52.9870   50.1950 C.3    34  LYS34       0.1561
     36  C          7.0360   54.4810   50.1470 C.2    34  LYS34       0.2260
     37  O          7.8840   55.2890   50.5380 O.2    34  LYS34      -0.2867
     38  CB         7.7590   52.5550   51.5880 C.3    34  LYS34       0.0271
     39  CG         6.6960   52.6440   52.6580 C.3    34  LYS34       0.0035
     40  CD         7.0870   51.8370   53.8680 C.3    34  LYS34       0.0206
     41  CE         6.0460   51.9680   54.9650 C.3    34  LYS34       0.1093
     42  NZ         6.4350   51.1560   56.1510 N.3    34  LYS34      -0.1314
     43  N         14.7520   43.9410   56.8350 N.3    65  VAL65      -0.1245
     44  CA        14.5830   44.5910   55.5370 C.3    65  VAL65       0.1561
     45  C         15.5210   45.7910   55.4270 C.2    65  VAL65       0.2260
     46  O         15.5680   46.6330   56.3250 O.2    65  VAL65      -0.2867
     47  CB        13.0990   45.0000   55.2670 C.3    65  VAL65       0.0252
     48  CG1       12.6720   46.1930   56.1400 C.3    65  VAL65       0.0019
     49  CG2       12.8870   45.3180   53.7710 C.3    65  VAL65       0.0019
     50  N         13.4880   50.3630   49.4940 N.3    81  PHE81      -0.1227
     51  CA        13.8090   49.1400   50.2200 C.3    81  PHE81       0.1736
     52  C         14.2670   48.0470   49.2500 C.2    81  PHE81       0.2595
     53  O         13.8820   48.0530   48.0890 O.2    81  PHE81      -0.2718
     54  CB        12.5570   48.6270   50.9280 C.3    81  PHE81       0.0547
     55  CG        12.1520   49.4190   52.1300 C.ar   81  PHE81      -0.0202
     56  CD1       12.8590   49.3180   53.3300 C.ar   81  PHE81      -0.0042
     57  CD2       11.0120   50.2120   52.0960 C.ar   81  PHE81      -0.0042
     58  CE1       12.4520   50.0310   54.4530 C.ar   81  PHE81      -0.0003
     59  CE2       10.6010   50.9210   53.2210 C.ar   81  PHE81      -0.0003
     60  CZ        11.3230   50.8370   54.3940 C.ar   81  PHE81      -0.0000
     61  N         15.0730   47.1090   49.7330 N.am   82  GLU82      -0.1979
     62  CA        15.3400   45.8600   49.0160 C.3    82  GLU82       0.1602
     63  C         14.0230   45.1290   48.7570 C.2    82  GLU82       0.2287
     64  O         13.1560   45.0640   49.6430 O.2    82  GLU82      -0.2864
     65  CB        16.2600   44.9600   49.8450 C.3    82  GLU82       0.0415
     66  CG        15.5950   44.3090   51.0670 C.3    82  GLU82       0.1163
     67  CD        16.4390   43.2090   51.6880 C.2    82  GLU82       0.3649
     68  OE1       16.8120   42.2510   50.9780 O.co2  82  GLU82      -0.2457
     69  OE2       16.7480   43.3040   52.8920 O.co2  82  GLU82      -0.2457
     70  N         11.5060   42.1600   48.4370 N.3    84  LEU84      -0.1245
     71  CA        11.2390   40.8260   48.9520 C.3    84  LEU84       0.1561
     72  C          9.9360   40.3490   48.3240 C.2    84  LEU84       0.2260
     73  O          9.0870   41.1630   47.9970 O.2    84  LEU84      -0.2867
     74  CB        11.1490   40.8780   50.4840 C.3    84  LEU84       0.0270
     75  CG        12.5070   41.2490   51.1090 C.3    84  LEU84       0.0019
     76  CD1       12.3790   41.8460   52.4900 C.3    84  LEU84       0.0001
     77  CD2       13.3390   40.0030   51.1650 C.3    84  LEU84       0.0001
     78  N          8.8810   39.3130   55.8120 N.3   135  LEU135     -0.1245
     79  CA         8.9840   39.1630   54.3660 C.3   135  LEU135      0.1561
     80  C          9.9630   38.0570   53.9760 C.2   135  LEU135      0.2260
     81  O         11.0500   37.9230   54.5720 O.2   135  LEU135     -0.2867
     82  CB         9.3590   40.4960   53.7060 C.3   135  LEU135      0.0270
     83  CG         8.4160   41.6880   53.9530 C.3   135  LEU135      0.0019
     84  CD1        8.9180   42.9500   53.2650 C.3   135  LEU135      0.0001
     85  CD2        6.9930   41.3930   53.5070 C.3   135  LEU135      0.0001
     86  N         10.1100   43.4110   58.7800 N.3   145  ALA145     -0.1231
     87  CA         9.8310   44.6370   58.0520 C.3   145  ALA145      0.1694
     88  C          8.8040   45.4930   58.7810 C.2   145  ALA145      0.2592
     89  O          8.2530   45.0710   59.8030 O.2   145  ALA145     -0.2718
     90  CB         9.3900   44.3310   56.6150 C.3   145  ALA145      0.0304
     91  N          8.5680   46.6960   58.2470 N.am  146  ASP146     -0.1974
     92  CA         7.6310   47.6740   58.8040 C.3   146  ASP146      0.1709
     93  C          8.0020   48.1310   60.2140 C.2   146  ASP146      0.2293
     94  O          7.5030   47.6040   61.1990 O.2   146  ASP146     -0.2864
     95  CB         6.1770   47.1840   58.7610 C.3   146  ASP146      0.1436
     96  CG         5.1720   48.3350   58.8240 C.2   146  ASP146      0.3671
     97  OD1        5.5680   49.4780   59.2030 O.co2 146  ASP146     -0.2456
     98  OD2        3.9670   48.1940   58.4990 O.co2 146  ASP146     -0.2456
@<TRIPOS>BOND
     1     7     5    1
     2     1     2    1
     3     5     2    1
     4     5     6    1
     5     2     3    1
     6    29    30    1
     7    25    24    2
     8     6     8    1
     9    24    23    1
    10    30    31    1
    11    30    33    1
    12    31    32    2
    13     3     9   am
    14     3     4    2
    15    73    72    2
    16    53    52    2
    17     9    10    1
    18    23    22    1
    19    23    26    1
    20    72    71    1
    21    70    71    1
    22    63    62    1
    23    63    64    2
    24    12    11    2
    25    27    26    1
    26    71    74    1
    27    62    61    1
    28    62    65    1
    29    34    35    1
    30    52    61   am
    31    52    51    1
    32    26    28    1
    33    50    51    1
    34    10    11    1
    35    11    13   am
    36    65    66    1
    37    36    35    1
    38    36    37    2
    39    35    38    1
    40    51    54    1
    41    21    19   ar
    42    74    75    1
    43    20    19   ar
    44    19    18    1
    45    17    18    1
    46    17    14    1
    47    54    55    1
    48    68    67   ar
    49    13    14    1
    50    66    67    1
    51    75    77    1
    52    75    76    1
    53    14    15    1
    54    38    39    1
    55    67    69   ar
    56    57    55   ar
    57    57    59   ar
    58    55    56   ar
    59    39    40    1
    60    15    16    2
    61    59    60   ar
    62    84    83    1
    63    56    58   ar
    64    85    83    1
    65    82    83    1
    66    82    79    1
    67    49    47    1
    68    40    41    1
    69    80    79    1
    70    80    81    2
    71    79    78    1
    72    60    58   ar
    73    41    42    1
    74    47    44    1
    75    47    48    1
    76    45    44    1
    77    45    46    2
    78    44    43    1
    79    90    87    1
    80    87    86    1
    81    87    88    1
    82    91    88   am
    83    91    92    1
    84    98    96   ar
    85    95    92    1
    86    95    96    1
    87    88    89    2
    88    92    93    1
    89    96    97   ar
    90    93    94    2
