@<TRIPOS>MOLECULE
tmp/1p5gA00.pdb
 150 140 0 0 0
SMALL
GASTEIGER

@<TRIPOS>ATOM
      1  N        -44.4690   -8.0460   10.9290 N.3     9  TYR9       -0.1241
      2  CA       -44.9220   -9.1000   10.0100 C.3     9  TYR9        0.1605
      3  C        -45.8070   -8.5760    8.9030 C.2     9  TYR9        0.2264
      4  O        -45.9080   -9.1950    7.8200 O.2     9  TYR9       -0.2867
      5  CB       -45.7430  -10.1850   10.7070 C.3     9  TYR9        0.0534
      6  CG       -45.1440  -10.7630   11.9830 C.ar    9  TYR9       -0.0201
      7  CD1      -43.7770  -10.8810   12.1610 C.ar    9  TYR9       -0.0009
      8  CD2      -45.9730  -11.1960   13.0000 C.ar    9  TYR9       -0.0009
      9  CE1      -43.2460  -11.4290   13.3200 C.ar    9  TYR9        0.0417
     10  CE2      -45.4520  -11.7550   14.1730 C.ar    9  TYR9        0.0417
     11  CZ       -44.0900  -11.8510   14.3200 C.ar    9  TYR9        0.1957
     12  OH       -43.5780  -12.3560   15.5060 O.3     9  TYR9       -0.2866
     13  N        -51.1780   -3.5090   10.5600 N.3    12  ARG12      -0.1245
     14  CA       -52.3900   -3.8160   11.3340 C.3    12  ARG12       0.1563
     15  C        -52.7740   -2.6140   12.1760 C.2    12  ARG12       0.2260
     16  O        -51.9080   -2.0160   12.8390 O.2    12  ARG12      -0.2867
     17  CB       -52.1460   -5.0100   12.2510 C.3    12  ARG12       0.0307
     18  CG       -53.3930   -5.5230   12.9960 C.3    12  ARG12       0.0489
     19  CD       -54.3500   -6.4290   12.1930 C.3    12  ARG12       0.2205
     20  NE       -53.6100   -7.4670   11.4830 N.pl3  12  ARG12      -0.0865
     21  CZ       -53.2760   -8.6510   11.9920 C.cat  12  ARG12       0.5346
     22  NH1      -52.5780   -9.5100   11.2570 N.pl3  12  ARG12       0.1354
     23  NH2      -53.6340   -8.9860   13.2210 N.pl3  12  ARG12       0.1354
     24  N        -57.2690  -12.5130   13.1500 N.3   100  HIS100     -0.1241
     25  CA       -58.1310  -13.0490   14.2220 C.3   100  HIS100      0.1621
     26  C        -58.5630  -11.9890   15.2440 C.2   100  HIS100      0.2264
     27  O        -59.2150  -12.3160   16.2610 O.2   100  HIS100     -0.2867
     28  CB       -57.3770  -14.1280   14.9940 C.3   100  HIS100      0.0745
     29  CG       -56.2860  -13.5840   15.8820 C.ar  100  HIS100      0.0817
     30  ND1      -54.9500  -13.6430   15.5420 N.ar  100  HIS100     -0.2268
     31  CD2      -56.3350  -12.9500   17.0800 C.ar  100  HIS100      0.1154
     32  CE1      -54.2230  -13.0980   16.5010 C.ar  100  HIS100      0.1986
     33  NE2      -55.0400  -12.6610   17.4430 N.ar  100  HIS100     -0.2212
     34  N        -51.4760   -7.7090    4.4760 N.3   109  LYS109     -0.1245
     35  CA       -50.4060   -8.6880    4.3140 C.3   109  LYS109      0.1561
     36  C        -49.9350   -8.5640    2.8720 C.2   109  LYS109      0.2260
     37  O        -50.7680   -8.5520    1.9440 O.2   109  LYS109     -0.2867
     38  CB       -50.9180  -10.0790    4.6450 C.3   109  LYS109      0.0271
     39  CG       -51.2610  -10.2080    6.1240 C.3   109  LYS109      0.0035
     40  CD       -51.8350  -11.5490    6.4880 C.3   109  LYS109      0.0206
     41  CE       -52.0390  -11.6590    7.9860 C.3   109  LYS109      0.1093
     42  NZ       -52.4560  -13.0070    8.4240 N.3   109  LYS109     -0.1314
     43  N        -54.7260  -19.9430    9.3980 N.3   238  ARG238     -0.1245
     44  CA       -54.4490  -20.7700   10.5740 C.3   238  ARG238      0.1563
     45  C        -55.5540  -21.7820   10.7570 C.2   238  ARG238      0.2260
     46  O        -56.7280  -21.4870   10.5050 O.2   238  ARG238     -0.2867
     47  CB       -54.3690  -19.9270   11.8330 C.3   238  ARG238      0.0307
     48  CG       -53.2020  -18.9710   11.8690 C.3   238  ARG238      0.0489
     49  CD       -53.3530  -17.8160   12.8350 C.3   238  ARG238      0.2205
     50  NE       -54.3250  -18.0240   13.9060 N.pl3 238  ARG238     -0.0865
     51  CZ       -54.9230  -17.0290   14.5540 C.cat 238  ARG238      0.5346
     52  NH1      -54.6540  -15.7900   14.2080 N.pl3 238  ARG238      0.1354
     53  NH2      -55.7820  -17.2610   15.5430 N.pl3 238  ARG238      0.1354
     54  N        -41.2140  -21.5090   19.4080 N.3   276  LYS276     -0.1245
     55  CA       -42.2840  -21.8880   20.3320 C.3   276  LYS276      0.1561
     56  C        -42.6240  -23.3740   20.2880 C.2   276  LYS276      0.2260
     57  O        -43.4640  -23.8290   21.0710 O.2   276  LYS276     -0.2867
     58  CB       -43.5420  -21.0780   20.0360 C.3   276  LYS276      0.0271
     59  CG       -43.3880  -19.5920   20.2550 C.3   276  LYS276      0.0035
     60  CD       -44.6980  -18.8930   20.0120 C.3   276  LYS276      0.0206
     61  CE       -44.5950  -17.4330   20.1100 C.3   276  LYS276      0.1093
     62  NZ       -45.9010  -16.7660   19.7540 N.3   276  LYS276     -0.1314
     63  N        -40.5630  -16.7900   15.0990 N.3   297  THR297     -0.1218
     64  CA       -42.0010  -16.6390   15.0230 C.3   297  THR297      0.1862
     65  C        -42.3650  -15.5390   14.0040 C.2   297  THR297      0.2287
     66  O        -41.6580  -14.5350   13.8970 O.2   297  THR297     -0.2866
     67  CB       -42.5020  -16.2390   16.4420 C.3   297  THR297      0.1770
     68  OG1      -42.2630  -17.3190   17.3650 O.3   297  THR297     -0.2211
     69  CG2      -43.9940  -15.9840   16.4550 C.3   297  THR297      0.0375
     70  N        -45.3150  -15.1640   10.3910 N.3   299  HIS299     -0.1241
     71  CA       -45.5650  -15.7810    9.0810 C.3   299  HIS299      0.1621
     72  C        -44.6090  -15.2910    8.0060 C.2   299  HIS299      0.2264
     73  O        -44.0220  -16.0940    7.2810 O.2   299  HIS299     -0.2867
     74  CB       -47.0470  -15.6340    8.6740 C.3   299  HIS299      0.0745
     75  CG       -47.4520  -14.2410    8.3150 C.ar  299  HIS299      0.0817
     76  ND1      -47.3740  -13.7540    7.0310 N.ar  299  HIS299     -0.2268
     77  CD2      -47.9150  -13.2220    9.0780 C.ar  299  HIS299      0.1154
     78  CE1      -47.7810  -12.4920    7.0130 C.ar  299  HIS299      0.1986
     79  NE2      -48.1170  -12.1480    8.2430 N.ar  299  HIS299     -0.2212
     80  N        -45.6260  -22.9940   12.5790 N.3   316  GLU316     -0.1245
     81  CA       -45.3940  -22.3330   13.8350 C.3   316  GLU316      0.1567
     82  C        -46.5130  -22.6030   14.8150 C.2   316  GLU316      0.2260
     83  O        -47.6500  -22.9180   14.4450 O.2   316  GLU316     -0.2867
     84  CB       -45.1970  -20.8410   13.6290 C.3   316  GLU316      0.0388
     85  CG       -46.3770  -20.1600   12.9870 C.3   316  GLU316      0.1160
     86  CD       -46.2020  -18.6710   12.9460 C.2   316  GLU316      0.3649
     87  OE1      -45.5500  -18.1150   13.8770 O.co2 316  GLU316     -0.2457
     88  OE2      -46.7320  -18.0600   12.0080 O.co2 316  GLU316     -0.2457
     89  N        -48.4990  -20.9300   16.4270 N.3   318  SER318     -0.1217
     90  CA       -49.7780  -20.2260   16.2450 C.3   318  SER318      0.1889
     91  C        -50.7370  -20.8810   15.2610 C.2   318  SER318      0.2288
     92  O        -51.8710  -20.4370   15.1480 O.2   318  SER318     -0.2866
     93  CB       -49.5640  -18.7860   15.8220 C.3   318  SER318      0.2089
     94  OG       -48.8140  -18.7460   14.6180 O.3   318  SER318     -0.2183
     95  N        -50.1120  -21.4480   11.8240 N.3   320  HIS320     -0.1241
     96  CA       -49.7510  -21.2090   10.4310 C.3   320  HIS320      0.1621
     97  C        -48.8920  -22.3880    9.9910 C.2   320  HIS320      0.2264
     98  O        -47.8520  -22.6630   10.6110 O.2   320  HIS320     -0.2867
     99  CB       -48.9710  -19.8820   10.2460 C.3   320  HIS320      0.0745
    100  CG       -49.7630  -18.6520   10.5700 C.ar  320  HIS320      0.0817
    101  ND1      -50.3880  -17.8980    9.6000 N.ar  320  HIS320     -0.2268
    102  CD2      -49.9940  -18.0170   11.7430 C.ar  320  HIS320      0.1154
    103  CE1      -51.0230  -16.8880   10.1740 C.ar  320  HIS320      0.1986
    104  NE2      -50.7990  -16.9310   11.4670 N.ar  320  HIS320     -0.2212
    105  N        -39.2290  -14.3530   24.6140 N.3   412  ARG412     -0.1245
    106  CA       -39.0390  -13.5230   23.4370 C.3   412  ARG412      0.1563
    107  C        -40.0470  -12.3910   23.4770 C.2   412  ARG412      0.2260
    108  O        -41.0090  -12.4170   24.2310 O.2   412  ARG412     -0.2867
    109  CB       -39.1870  -14.3620   22.1660 C.3   412  ARG412      0.0307
    110  CG       -40.5280  -15.0400   22.0180 C.3   412  ARG412      0.0489
    111  CD       -40.7340  -15.6470   20.6400 C.3   412  ARG412      0.2205
    112  NE       -40.9860  -14.6800   19.5720 N.pl3 412  ARG412     -0.0865
    113  CZ       -42.1480  -14.0740   19.3590 C.cat 412  ARG412      0.5346
    114  NH1      -43.1740  -14.2720   20.1630 N.pl3 412  ARG412      0.1354
    115  NH2      -42.2820  -13.2650   18.3320 N.pl3 412  ARG412      0.1354
    116  N        -43.0290  -10.3700   21.8220 N.3   414  SER414     -0.1202
    117  CA       -44.0700  -10.3900   20.8140 C.3   414  SER414      0.2020
    118  C        -43.8700   -9.2510   19.8200 C.2   414  SER414      0.2619
    119  O        -43.4810   -8.1410   20.1970 O.2   414  SER414     -0.2717
    120  CB       -45.4330  -10.2520   21.4920 C.3   414  SER414      0.2103
    121  OG       -46.4580  -10.0470   20.5410 O.3   414  SER414     -0.2182
    122  N        -44.1680   -9.5350   18.5530 N.am  415  ASN415     -0.1960
    123  CA       -44.1870   -8.5070   17.5150 C.3   415  ASN415      0.1819
    124  C        -45.6180   -8.0640   17.1510 C.2   415  ASN415      0.2622
    125  O        -45.8070   -7.3950   16.1330 O.2   415  ASN415     -0.2715
    126  CB       -43.4630   -8.9990   16.2820 C.3   415  ASN415      0.1195
    127  CG       -42.0120   -9.2730   16.5500 C.2   415  ASN415      0.2630
    128  OD1      -41.5300  -10.4430   16.4540 O.2   415  ASN415     -0.2716
    129  ND2      -41.2870   -8.2240   16.9000 N.am  415  ASN415     -0.0877
    130  N        -46.6090   -8.4570   17.9510 N.am  416  THR416     -0.1937
    131  CA       -48.0150   -8.0740   17.7060 C.3   416  THR416      0.2028
    132  C        -48.6660   -7.3810   18.8890 C.2   416  THR416      0.2642
    133  O        -49.7430   -6.7640   18.7390 O.2   416  THR416     -0.2714
    134  CB       -48.8780   -9.2980   17.3220 C.3   416  THR416      0.1808
    135  OG1      -48.9690  -10.2540   18.3850 O.3   416  THR416     -0.2208
    136  CG2      -48.2730  -10.0640   16.1380 C.3   416  THR416      0.0379
    137  N        -48.0130   -7.4650   20.0440 N.am  417  THR417     -0.1950
    138  CA       -48.4960   -6.9000   21.2980 C.3   417  THR417      0.1897
    139  C        -47.3100   -6.4820   22.1750 C.2   417  THR417      0.2313
    140  O        -46.1820   -6.9730   21.9930 O.2   417  THR417     -0.2863
    141  CB       -49.3350   -7.9220   22.0690 C.3   417  THR417      0.1794
    142  OG1      -48.5420   -9.0800   22.3690 O.3   417  THR417     -0.2208
    143  CG2      -50.5160   -8.4550   21.2300 C.3   417  THR417      0.0378
    144  N        -43.2980  -13.0620   25.6290 N.3   421  VAL421     -0.1245
    145  CA       -43.9170  -14.3660   25.4290 C.3   421  VAL421      0.1561
    146  C        -42.9660  -15.4260   25.9740 C.2   421  VAL421      0.2260
    147  O        -41.7720  -15.4190   25.6400 O.2   421  VAL421     -0.2867
    148  CB       -44.1380  -14.6540   23.9340 C.3   421  VAL421      0.0252
    149  CG1      -44.7260  -16.0320   23.7370 C.3   421  VAL421      0.0019
    150  CG2      -44.9850  -13.5720   23.2760 C.3   421  VAL421      0.0019
@<TRIPOS>BOND
     1    37    36    2
     2    36    35    1
     3    35    34    1
     4    35    38    1
     5    38    39    1
     6    39    40    1
     7    40    41    1
     8    78    76   ar
     9    78    79   ar
    10    76    75   ar
    11    73    72    2
    12     4     3    2
    13    41    42    1
    14    72    71    1
    15    79    77   ar
    16    75    74    1
    17    75    77   ar
    18    74    71    1
    19     3     2    1
    20    71    70    1
    21    43    44    1
    22   101   103   ar
    23   101   100   ar
    24    97    96    1
    25    97    98    2
    26     2     5    1
    27     2     1    1
    28   103   104   ar
    29    99    96    1
    30    99   100    1
    31    96    95    1
    32    46    45    2
    33    13    14    1
    34   100   102   ar
    35    44    45    1
    36    44    47    1
    37     5     6    1
    38    22    21    1
    39    14    15    1
    40    14    17    1
    41   104   102   ar
    42    20    21    2
    43    20    19    1
    44    47    48    1
    45    48    49    1
    46     6     7   ar
    47     6     8   ar
    48    21    23    1
    49    88    86   ar
    50     7     9   ar
    51    15    16    2
    52    19    18    1
    53    17    18    1
    54    80    81    1
    55    49    50    1
    56    86    85    1
    57    86    87   ar
    58    85    84    1
    59     8    10   ar
    60    24    25    1
    61     9    11   ar
    62    84    81    1
    63    81    82    1
    64    66    65    2
    65    50    51    2
    66    65    64    1
    67    10    11   ar
    68    52    51    1
    69    25    28    1
    70    25    26    1
    71    11    12    1
    72    83    82    2
    73    51    53    1
    74    94    93    1
    75    28    29    1
    76    64    63    1
    77    64    67    1
    78    92    91    2
    79    26    27    2
    80    91    90    1
    81    30    29   ar
    82    30    32   ar
    83    93    90    1
    84    29    31   ar
    85   125   124    2
    86   136   134    1
    87    90    89    1
    88   126   127    1
    89   126   123    1
    90    67    69    1
    91    67    68    1
    92   128   127    2
    93    32    33   ar
    94   127   129   am
    95    31    33   ar
    96   124   123    1
    97   124   130   am
    98   134   131    1
    99   134   135    1
   100   123   122    1
   101   131   130    1
   102   131   132    1
   103   115   113    1
   104   122   118   am
   105   133   132    2
   106   132   137   am
   107   113   112    2
   108   113   114    1
   109    54    55    1
   110   112   111    1
   111    62    61    1
   112   118   119    2
   113   118   117    1
   114    60    61    1
   115    60    59    1
   116    58    59    1
   117    58    55    1
   118   137   138    1
   119    56    55    1
   120    56    57    2
   121   121   120    1
   122   111   110    1
   123   117   120    1
   124   117   116    1
   125   143   141    1
   126   138   141    1
   127   138   139    1
   128   140   139    2
   129   110   109    1
   130   141   142    1
   131   109   106    1
   132   150   148    1
   133   106   107    1
   134   106   105    1
   135   107   108    2
   136   149   148    1
   137   148   145    1
   138   145   144    1
   139   145   146    1
   140   147   146    2
