@<TRIPOS>MOLECULE
tmp/1p6cB01.pdb
 133 131 0 0 0
SMALL
GASTEIGER

@<TRIPOS>ATOM
      1  N         40.7920  -30.2750    4.2450 N.3    23  HIS23      -0.1241
      2  CA        40.3450  -29.1000    4.9770 C.3    23  HIS23       0.1621
      3  C         39.2710  -28.3250    4.1980 C.2    23  HIS23       0.2264
      4  O         39.4000  -28.1600    2.9850 O.2    23  HIS23      -0.2867
      5  CB        41.4680  -28.1010    5.3240 C.3    23  HIS23       0.0745
      6  CG        42.7040  -28.6290    5.9840 C.ar   23  HIS23       0.0817
      7  ND1       42.8890  -28.5350    7.3680 N.ar   23  HIS23      -0.2268
      8  CD2       43.8230  -29.2040    5.4220 C.ar   23  HIS23       0.1154
      9  CE1       44.1010  -29.0370    7.6000 C.ar   23  HIS23       0.1986
     10  NE2       44.6750  -29.4550    6.4630 N.ar   23  HIS23      -0.2212
     11  N         41.5000  -23.3510    5.5380 N.3    26  GLY26      -0.1225
     12  CA        42.7470  -23.3130    6.3010 C.3    26  GLY26       0.1811
     13  C         43.0110  -21.8820    6.7620 C.2    26  GLY26       0.2280
     14  O         43.5140  -21.0550    5.9930 O.2    26  GLY26      -0.2866
     15  N         43.6260  -24.0030   13.6080 N.3    72  ILE72      -0.1245
     16  CA        43.6080  -23.9590   12.1720 C.3    72  ILE72       0.1561
     17  C         42.3630  -23.1690   11.7820 C.2    72  ILE72       0.2260
     18  O         42.0070  -22.9670   10.6270 O.2    72  ILE72      -0.2867
     19  CB        43.7330  -25.3500   11.5220 C.3    72  ILE72       0.0252
     20  CG1       45.1410  -25.9370   11.7600 C.3    72  ILE72       0.0019
     21  CG2       43.5500  -25.1960   10.0080 C.3    72  ILE72       0.0019
     22  CD1       45.4050  -27.3270   11.1530 C.3    72  ILE72       0.0001
     23  N         47.6620  -27.7590   16.1950 N.3    97  TRP97      -0.1227
     24  CA        48.5880  -27.6860   15.0720 C.3    97  TRP97       0.1737
     25  C         49.8040  -26.8710   15.4820 C.2    97  TRP97       0.2595
     26  O         50.1880  -26.9190   16.6410 O.2    97  TRP97      -0.2718
     27  CB        47.7890  -27.0580   13.9530 C.3    97  TRP97       0.0564
     28  CG        48.4150  -26.9370   12.6090 C.ar   97  TRP97       0.0003
     29  CD1       48.7670  -27.9200   11.7480 C.ar   97  TRP97       0.0946
     30  CD2       48.6410  -25.7140   11.9340 C.ar   97  TRP97       0.0152
     31  NE1       49.2880  -27.4050   10.6040 N.ar   97  TRP97      -0.2442
     32  CE2       49.1840  -26.0470   10.6730 C.ar   97  TRP97       0.0810
     33  CE3       48.4020  -24.3840   12.2730 C.ar   97  TRP97       0.0012
     34  CZ2       49.4950  -25.0580    9.7490 C.ar   97  TRP97       0.0191
     35  CZ3       48.7570  -23.4120   11.3690 C.ar   97  TRP97       0.0001
     36  CH2       49.2800  -23.7490   10.1180 C.ar   97  TRP97       0.0015
     37  N         50.4580  -26.1060   14.6140 N.am   98  PHE98      -0.1976
     38  CA        51.6210  -25.4060   15.1430 C.3    98  PHE98       0.1639
     39  C         51.4820  -23.9170   15.3460 C.2    98  PHE98       0.2290
     40  O         52.4600  -23.1730   15.3130 O.2    98  PHE98      -0.2864
     41  CB        52.9130  -25.7670   14.3760 C.3    98  PHE98       0.0560
     42  CG        52.8420  -25.5400   12.8830 C.ar   98  PHE98      -0.0200
     43  CD1       53.0560  -24.2770   12.3290 C.ar   98  PHE98      -0.0042
     44  CD2       52.6020  -26.6140   12.0180 C.ar   98  PHE98      -0.0042
     45  CE1       53.0150  -24.0970   10.9430 C.ar   98  PHE98      -0.0003
     46  CE2       52.5560  -26.4460   10.6340 C.ar   98  PHE98      -0.0003
     47  CZ        52.7690  -25.1750   10.0980 C.ar   98  PHE98      -0.0000
     48  N         51.0400  -34.1790   11.4560 N.3   166  HIS166     -0.1241
     49  CA        51.7030  -33.3810   10.4520 C.3   166  HIS166      0.1621
     50  C         53.1910  -33.6040   10.7770 C.2   166  HIS166      0.2264
     51  O         53.5500  -33.6860   11.9460 O.2   166  HIS166     -0.2867
     52  CB        51.3040  -31.9000   10.6160 C.3   166  HIS166      0.0745
     53  CG        52.1250  -30.9230    9.8000 C.ar  166  HIS166      0.0817
     54  ND1       51.5720  -30.1730    8.7460 N.ar  166  HIS166     -0.2268
     55  CD2       53.4550  -30.5840    9.9040 C.ar  166  HIS166      0.1154
     56  CE1       52.5880  -29.4570    8.2180 C.ar  166  HIS166      0.1986
     57  NE2       53.7350  -29.6810    8.8900 N.ar  166  HIS166     -0.2212
     58  N         52.0660  -36.4780    5.9370 N.3   195  HIS195     -0.1241
     59  CA        52.9210  -35.7380    5.0240 C.3   195  HIS195      0.1621
     60  C         54.0440  -36.6520    4.6090 C.2   195  HIS195      0.2264
     61  O         55.1190  -36.2810    4.1860 O.2   195  HIS195     -0.2867
     62  CB        53.3340  -34.3230    5.5460 C.3   195  HIS195      0.0745
     63  CG        52.1380  -33.4200    5.8160 C.ar  195  HIS195      0.0817
     64  ND1       50.9920  -33.4610    5.0280 N.ar  195  HIS195     -0.2268
     65  CD2       51.8920  -32.5330    6.8410 C.ar  195  HIS195      0.1154
     66  CE1       50.1230  -32.6020    5.5400 C.ar  195  HIS195      0.1986
     67  NE2       50.6300  -32.0230    6.6350 N.ar  195  HIS195     -0.2212
     68  N         50.0710  -31.7140   -4.8950 N.3   222  TRP222     -0.1241
     69  CA        50.8990  -30.5880   -4.5180 C.3   222  TRP222      0.1605
     70  C         52.1810  -30.5540   -5.2880 C.2   222  TRP222      0.2264
     71  O         53.1440  -31.2870   -5.0430 O.2   222  TRP222     -0.2867
     72  CB        51.2430  -30.6100   -3.0270 C.3   222  TRP222      0.0550
     73  CG        50.1410  -30.1590   -2.1030 C.ar  222  TRP222      0.0003
     74  CD1       48.8460  -30.5810   -2.1010 C.ar  222  TRP222      0.0946
     75  CD2       50.2590  -29.2240   -1.0200 C.ar  222  TRP222      0.0152
     76  NE1       48.1280  -29.9430   -1.1170 N.ar  222  TRP222     -0.2442
     77  CE2       48.9620  -29.0890   -0.4450 C.ar  222  TRP222      0.0810
     78  CE3       51.3320  -28.4680   -0.5080 C.ar  222  TRP222      0.0012
     79  CZ2       48.7380  -28.2280    0.6410 C.ar  222  TRP222      0.0191
     80  CZ3       51.1130  -27.6120    0.5530 C.ar  222  TRP222      0.0001
     81  CH2       49.8320  -27.5030    1.1290 C.ar  222  TRP222      0.0015
     82  N         55.8940  -23.8130   -0.6630 N.3   236  LEU236     -0.1245
     83  CA        54.7820  -24.5710   -0.1250 C.3   236  LEU236      0.1561
     84  C         54.4860  -25.8930   -0.8440 C.2   236  LEU236      0.2260
     85  O         54.4440  -26.9500   -0.2270 O.2   236  LEU236     -0.2867
     86  CB        53.5130  -23.7010   -0.0640 C.3   236  LEU236      0.0270
     87  CG        52.3090  -24.4820    0.4280 C.3   236  LEU236      0.0019
     88  CD1       52.0600  -24.1710    1.8930 C.3   236  LEU236      0.0001
     89  CD2       51.0930  -24.1150   -0.3960 C.3   236  LEU236      0.0001
     90  N         44.9280  -33.1540    0.7630 N.3   266  ASP266     -0.1239
     91  CA        45.3270  -32.0310    1.6170 C.3   266  ASP266      0.1674
     92  C         44.8950  -30.7450    0.9410 C.2   266  ASP266      0.2266
     93  O         45.6270  -29.7610    0.8920 O.2   266  ASP266     -0.2867
     94  CB        46.8290  -31.9920    2.0650 C.3   266  ASP266      0.1410
     95  CG        47.1220  -31.1140    3.2780 C.2   266  ASP266      0.3668
     96  OD1       46.3160  -30.7330    4.1110 O.co2 266  ASP266     -0.2456
     97  OD2       48.3650  -30.8140    3.3890 O.co2 266  ASP266     -0.2456
     98  N         41.9010  -27.5820    0.1200 N.3   268  THR268     -0.1218
     99  CA        41.1740  -26.5740    0.8980 C.3   268  THR268      0.1862
    100  C         40.4120  -25.5950    0.0050 C.2   268  THR268      0.2287
    101  O         40.7840  -25.3750   -1.1610 O.2   268  THR268     -0.2866
    102  CB        42.1570  -25.7500    1.7760 C.3   268  THR268      0.1770
    103  OG1       41.4550  -24.9710    2.7350 O.3   268  THR268     -0.2211
    104  CG2       43.0340  -24.8410    0.9200 C.3   268  THR268      0.0375
    105  N         42.1320  -20.2350    2.4050 N.3   271  PHE271     -0.1241
    106  CA        43.4410  -20.4030    2.9920 C.3   271  PHE271      0.1605
    107  C         44.0240  -19.0590    3.4050 C.2   271  PHE271      0.2264
    108  O         44.6200  -18.3480    2.6190 O.2   271  PHE271     -0.2867
    109  CB        44.2400  -21.1000    1.8650 C.3   271  PHE271      0.0534
    110  CG        45.5400  -21.6930    2.2970 C.ar  271  PHE271     -0.0203
    111  CD1       45.9440  -21.6010    3.6270 C.ar  271  PHE271     -0.0042
    112  CD2       46.3620  -22.3530    1.3760 C.ar  271  PHE271     -0.0042
    113  CE1       47.1510  -22.1680    4.0430 C.ar  271  PHE271     -0.0003
    114  CE2       47.5780  -22.9200    1.7690 C.ar  271  PHE271     -0.0003
    115  CZ        47.9590  -22.8330    3.1140 C.ar  271  PHE271     -0.0000
    116  N         46.0510  -18.6760    6.2690 N.3   273  SER273     -0.1202
    117  CA        47.2660  -18.7920    7.0480 C.3   273  SER273      0.2020
    118  C         48.4780  -18.7850    6.1210 C.2   273  SER273      0.2618
    119  O         49.5400  -19.3130    6.4280 O.2   273  SER273     -0.2717
    120  CB        47.2340  -20.0150    7.9570 C.3   273  SER273      0.2103
    121  OG        47.0170  -21.1400    7.1130 O.3   273  SER273     -0.2182
    122  N         48.3380  -18.1830    4.9580 N.am  274  TYR274     -0.1975
    123  CA        49.4640  -18.1220    4.0470 C.3   274  TYR274      0.1639
    124  C         49.4670  -16.8120    3.2780 C.2   274  TYR274      0.2290
    125  O         48.7170  -15.9020    3.6000 O.2   274  TYR274     -0.2864
    126  CB        49.5310  -19.3390    3.1060 C.3   274  TYR274      0.0560
    127  CG        50.9250  -19.5770    2.5900 C.ar  274  TYR274     -0.0198
    128  CD1       51.9960  -19.8390    3.4470 C.ar  274  TYR274     -0.0009
    129  CD2       51.1790  -19.5150    1.2200 C.ar  274  TYR274     -0.0009
    130  CE1       53.2910  -20.0440    2.9610 C.ar  274  TYR274      0.0417
    131  CE2       52.4620  -19.7150    0.7120 C.ar  274  TYR274      0.0417
    132  CZ        53.5230  -19.9950    1.5820 C.ar  274  TYR274      0.1957
    133  OH        54.7880  -20.1990    1.0640 O.3   274  TYR274     -0.2866
@<TRIPOS>BOND
     1    70    71    2
     2    70    69    1
     3    68    69    1
     4    69    72    1
     5    72    73    1
     6    73    74   ar
     7    73    75   ar
     8    74    76   ar
     9   101   100    2
    10    76    77   ar
    11    75    78   ar
    12    75    77   ar
    13    84    85    2
    14    84    83    1
    15    82    83    1
    16    78    80   ar
    17    77    79   ar
    18    89    87    1
    19    83    86    1
    20    86    87    1
    21   100    99    1
    22    98    99    1
    23    87    88    1
    24    80    81   ar
    25    79    81   ar
    26   131   129   ar
    27   131   132   ar
    28    90    91    1
    29    93    92    2
    30    99   102    1
    31   104   102    1
    32    92    91    1
    33   133   132    1
    34   129   127   ar
    35   112   114   ar
    36   112   110   ar
    37   132   130   ar
    38    91    94    1
    39   114   115   ar
    40   102   103    1
    41   109   110    1
    42   109   106    1
    43    94    95    1
    44   110   111   ar
    45   105   106    1
    46   127   126    1
    47   127   128   ar
    48   108   107    2
    49   130   128   ar
    50     4     3    2
    51   106   107    1
    52   126   123    1
    53   115   113   ar
    54   124   125    2
    55   124   123    1
    56    95    97   ar
    57    95    96   ar
    58   111   113   ar
    59   123   122    1
    60    61    60    2
    61     3     2    1
    62     1     2    1
    63    60    59    1
    64   122   118   am
    65     2     5    1
    66    59    62    1
    67    59    58    1
    68    64    66   ar
    69    64    63   ar
    70     5     6    1
    71     8     6   ar
    72     8    10   ar
    73    11    12    1
    74    66    67   ar
    75    62    63    1
    76    63    65   ar
    77     6     7   ar
    78    14    13    2
    79   118   119    2
    80   118   117    1
    81   116   117    1
    82    12    13    1
    83    10     9   ar
    84    67    65   ar
    85   117   120    1
    86   121   120    1
    87     7     9   ar
    88    56    54   ar
    89    56    57   ar
    90    54    53   ar
    91    57    55   ar
    92    34    36   ar
    93    34    32   ar
    94    53    55   ar
    95    53    52    1
    96    21    19    1
    97    47    46   ar
    98    47    45   ar
    99    36    35   ar
   100    49    52    1
   101    49    50    1
   102    49    48    1
   103    31    32   ar
   104    31    29   ar
   105    18    17    2
   106    46    44   ar
   107    32    30   ar
   108    50    51    2
   109    45    43   ar
   110    22    20    1
   111    35    33   ar
   112    19    20    1
   113    19    16    1
   114    29    28   ar
   115    17    16    1
   116    30    33   ar
   117    30    28   ar
   118    44    42   ar
   119    16    15    1
   120    43    42   ar
   121    28    27    1
   122    42    41    1
   123    27    24    1
   124    41    38    1
   125    37    38    1
   126    37    25   am
   127    24    25    1
   128    24    23    1
   129    38    39    1
   130    40    39    2
   131    25    26    2
