@<TRIPOS>MOLECULE
tmp/1p6dA00.pdb
 182 180 0 0 0
SMALL
GASTEIGER

@<TRIPOS>ATOM
      1  N         44.0510   24.6730    8.2610 N.3     1  TRP1       -0.1227
      2  CA        45.3860   24.0350    8.0960 C.3     1  TRP1        0.1737
      3  C         45.2730   22.7020    7.3610 C.2     1  TRP1        0.2596
      4  O         44.1930   22.1120    7.2730 O.2     1  TRP1       -0.2718
      5  CB        46.0350   23.8010    9.4620 C.3     1  TRP1        0.0564
      6  CG        46.0420   25.0050   10.3580 C.ar    1  TRP1        0.0003
      7  CD1       45.2640   25.2050   11.4640 C.ar    1  TRP1        0.0946
      8  CD2       46.8830   26.1590   10.2450 C.ar    1  TRP1        0.0152
      9  NE1       45.5710   26.4070   12.0490 N.ar    1  TRP1       -0.2442
     10  CE2       46.5610   27.0160   11.3240 C.ar    1  TRP1        0.0810
     11  CE3       47.8800   26.5530    9.3390 C.ar    1  TRP1        0.0012
     12  CZ2       47.2020   28.2450   11.5250 C.ar    1  TRP1        0.0191
     13  CZ3       48.5170   27.7750    9.5390 C.ar    1  TRP1        0.0001
     14  CH2       48.1740   28.6070   10.6260 C.ar    1  TRP1        0.0015
     15  N         46.4010   22.2260    6.8480 N.am    2  SER2       -0.1952
     16  CA        46.4330   20.9720    6.1110 C.3     2  SER2        0.1924
     17  C         46.1850   19.7630    7.0040 C.2     2  SER2        0.2314
     18  O         46.3910   19.8170    8.2160 O.2     2  SER2       -0.2863
     19  CB        47.7900   20.7990    5.4350 C.3     2  SER2        0.2116
     20  OG        48.7910   20.5480    6.4110 O.3     2  SER2       -0.2180
     21  N         46.5390   16.3500    5.1400 N.3     4  GLU4       -0.1245
     22  CA        46.6820   15.4470    3.9990 C.3     4  GLU4        0.1567
     23  C         46.8890   13.9760    4.3390 C.2     4  GLU4        0.2260
     24  O         46.3810   13.1010    3.6450 O.2     4  GLU4       -0.2867
     25  CB        47.8400   15.9090    3.1130 C.3     4  GLU4        0.0388
     26  CG        47.8720   17.4000    2.8290 C.3     4  GLU4        0.1160
     27  CD        46.5580   17.9250    2.2930 C.2     4  GLU4        0.3649
     28  OE1       45.6360   18.1720    3.1020 O.co2   4  GLU4       -0.2457
     29  OE2       46.4450   18.0830    1.0590 O.co2   4  GLU4       -0.2457
     30  N         38.0840   16.7800    7.3100 N.3    55  ASN55      -0.1225
     31  CA        38.2880   17.3050    5.9610 C.3    55  ASN55       0.1785
     32  C         37.9210   16.3540    4.8210 C.2    55  ASN55       0.2597
     33  O         38.0000   16.7360    3.6510 O.2    55  ASN55      -0.2718
     34  CB        39.7580   17.7140    5.7740 C.3    55  ASN55       0.1169
     35  CG        40.0720   19.0880    6.3430 C.2    55  ASN55       0.2627
     36  OD1       39.1950   19.7820    6.8570 O.2    55  ASN55      -0.2716
     37  ND2       41.3340   19.4910    6.2440 N.am   55  ASN55      -0.0877
     38  N         37.5030   15.1360    5.1410 N.am   56  TYR56      -0.1976
     39  CA        37.2220   14.1710    4.0800 C.3    56  TYR56       0.1639
     40  C         35.8690   13.4810    3.9930 C.2    56  TYR56       0.2290
     41  O         35.6150   12.7480    3.0330 O.2    56  TYR56      -0.2864
     42  CB        38.3280   13.1120    4.0960 C.3    56  TYR56       0.0560
     43  CG        39.6800   13.6970    3.7570 C.ar   56  TYR56      -0.0198
     44  CD1       40.0900   13.8230    2.4320 C.ar   56  TYR56      -0.0009
     45  CD2       40.5210   14.1860    4.7590 C.ar   56  TYR56      -0.0009
     46  CE1       41.3050   14.4250    2.1060 C.ar   56  TYR56       0.0417
     47  CE2       41.7400   14.7920    4.4440 C.ar   56  TYR56       0.0417
     48  CZ        42.1230   14.9070    3.1150 C.ar   56  TYR56       0.1957
     49  OH        43.3240   15.4990    2.7920 O.3    56  TYR56      -0.2866
     50  N         31.7050   18.7000    0.8980 N.3    64  SER64      -0.1202
     51  CA        32.8760   19.2950    0.2590 C.3    64  SER64       0.2020
     52  C         32.8990   20.8240    0.1910 C.2    64  SER64       0.2619
     53  O         33.6210   21.3910   -0.6260 O.2    64  SER64      -0.2717
     54  CB        33.0590   18.7240   -1.1510 C.3    64  SER64       0.2103
     55  OG        33.2920   17.3290   -1.1010 O.3    64  SER64      -0.2182
     56  N         32.1170   21.4920    1.0340 N.am   65  THR65      -0.1938
     57  CA        32.1180   22.9570    1.0460 C.3    65  THR65       0.2028
     58  C         32.9040   23.4510    2.2610 C.2    65  THR65       0.2642
     59  O         33.2840   24.6190    2.3340 O.2    65  THR65      -0.2714
     60  CB        30.6950   23.5440    1.1430 C.3    65  THR65       0.1808
     61  OG1       30.1280   23.2060    2.4140 O.3    65  THR65      -0.2208
     62  CG2       29.8070   23.0080    0.0200 C.3    65  THR65       0.0379
     63  N         33.1300   22.5480    3.2140 N.am   66  PHE66      -0.1973
     64  CA        33.8530   22.8520    4.4480 C.3    66  PHE66       0.1639
     65  C         33.3080   24.0800    5.1680 C.2    66  PHE66       0.2290
     66  O         34.0500   24.7810    5.8570 O.2    66  PHE66      -0.2864
     67  CB        35.3450   23.0580    4.1700 C.3    66  PHE66       0.0560
     68  CG        36.0090   21.8820    3.5210 C.ar   66  PHE66      -0.0200
     69  CD1       35.8930   21.6680    2.1510 C.ar   66  PHE66      -0.0042
     70  CD2       36.7680   20.9930    4.2750 C.ar   66  PHE66      -0.0042
     71  CE1       36.5270   20.5860    1.5380 C.ar   66  PHE66      -0.0003
     72  CE2       37.4080   19.9080    3.6730 C.ar   66  PHE66      -0.0003
     73  CZ        37.2870   19.7050    2.3020 C.ar   66  PHE66      -0.0000
     74  N         34.0870   24.6120    8.8300 N.3    69  HIS69      -0.1226
     75  CA        35.4810   24.8290    9.2130 C.3    69  HIS69       0.1752
     76  C         35.8250   26.3160    9.2820 C.2    69  HIS69       0.2596
     77  O         36.9800   26.6790    9.5070 O.2    69  HIS69      -0.2718
     78  CB        36.4160   24.1300    8.2190 C.3    69  HIS69       0.0759
     79  CG        36.1990   22.6520    8.1340 C.ar   69  HIS69       0.0818
     80  ND1       37.2300   21.7440    8.2110 N.ar   69  HIS69      -0.2268
     81  CD2       35.0650   21.9220    8.0010 C.ar   69  HIS69       0.1154
     82  CE1       36.7430   20.5180    8.1310 C.ar   69  HIS69       0.1986
     83  NE2       35.4320   20.5980    8.0040 N.ar   69  HIS69      -0.2212
     84  N         34.8150   27.1650    9.0920 N.am   70  PHE70      -0.1976
     85  CA        35.0000   28.6110    9.1250 C.3    70  PHE70       0.1639
     86  C         34.1160   29.2510   10.1850 C.2    70  PHE70       0.2290
     87  O         33.0380   28.7410   10.5000 O.2    70  PHE70      -0.2864
     88  CB        34.6560   29.2400    7.7660 C.3    70  PHE70       0.0560
     89  CG        35.5690   28.8220    6.6480 C.ar   70  PHE70      -0.0200
     90  CD1       35.5040   27.5380    6.1200 C.ar   70  PHE70      -0.0042
     91  CD2       36.5060   29.7100    6.1350 C.ar   70  PHE70      -0.0042
     92  CE1       36.3640   27.1420    5.0930 C.ar   70  PHE70      -0.0003
     93  CE2       37.3680   29.3260    5.1090 C.ar   70  PHE70      -0.0003
     94  CZ        37.2960   28.0380    4.5870 C.ar   70  PHE70      -0.0000
     95  N         31.1610   31.1780    5.7210 N.3    79  TYR79      -0.1241
     96  CA        31.0820   31.8280    4.4140 C.3    79  TYR79       0.1605
     97  C         29.8490   31.5460    3.5470 C.2    79  TYR79       0.2264
     98  O         29.6730   32.1570    2.4910 O.2    79  TYR79      -0.2867
     99  CB        32.3650   31.5500    3.6150 C.3    79  TYR79       0.0534
    100  CG        32.4250   30.2180    2.9020 C.ar   79  TYR79      -0.0201
    101  CD1       32.8090   29.0510    3.5690 C.ar   79  TYR79      -0.0009
    102  CD2       32.1220   30.1310    1.5480 C.ar   79  TYR79      -0.0009
    103  CE1       32.8910   27.8320    2.8910 C.ar   79  TYR79       0.0417
    104  CE2       32.1960   28.9300    0.8660 C.ar   79  TYR79       0.0417
    105  CZ        32.5830   27.7830    1.5390 C.ar   79  TYR79       0.1957
    106  OH        32.6720   26.6020    0.8400 O.3    79  TYR79      -0.2866
    107  N         40.1580   19.6060   15.5090 N.3   118  HIS118     -0.1241
    108  CA        40.3260   20.0700   14.1350 C.3   118  HIS118      0.1621
    109  C         39.6780   21.4430   13.9710 C.2   118  HIS118      0.2264
    110  O         40.2870   22.3700   13.4410 O.2   118  HIS118     -0.2867
    111  CB        39.6800   19.0990   13.1430 C.3   118  HIS118      0.0745
    112  CG        39.8380   19.5160   11.7130 C.ar  118  HIS118      0.0817
    113  ND1       40.6770   18.8640   10.8360 N.ar  118  HIS118     -0.2268
    114  CD2       39.2880   20.5400   11.0180 C.ar  118  HIS118      0.1154
    115  CE1       40.6370   19.4680    9.6610 C.ar  118  HIS118      0.1986
    116  NE2       39.8020   20.4890    9.7450 N.ar  118  HIS118     -0.2212
    117  N         41.3560   25.0400   13.1020 N.3   122  ASP122     -0.1239
    118  CA        41.0170   25.8650   11.9460 C.3   122  ASP122      0.1674
    119  C         40.7800   27.3480   12.2490 C.2   122  ASP122      0.2266
    120  O         41.2140   28.2040   11.4790 O.2   122  ASP122     -0.2867
    121  CB        39.7860   25.3140   11.2140 C.3   122  ASP122      0.1410
    122  CG        40.1400   24.2990   10.1380 C.2   122  ASP122      0.3668
    123  OD1       41.3070   24.2630    9.6940 O.co2 122  ASP122     -0.2456
    124  OD2       39.2370   23.5460    9.7190 O.co2 122  ASP122     -0.2456
    125  N         40.4180   31.3450    7.9350 N.3   128  HIS128     -0.1241
    126  CA        39.2150   30.6710    8.4140 C.3   128  HIS128      0.1621
    127  C         38.3960   31.5640    9.3350 C.2   128  HIS128      0.2264
    128  O         37.1900   31.3700    9.4880 O.2   128  HIS128     -0.2867
    129  CB        39.5990   29.3850    9.1430 C.3   128  HIS128      0.0745
    130  CG        39.9940   28.2760    8.2230 C.ar  128  HIS128      0.0817
    131  ND1       39.1690   27.2050    7.9560 N.ar  128  HIS128     -0.2268
    132  CD2       41.1000   28.0990    7.4610 C.ar  128  HIS128      0.1154
    133  CE1       39.7470   26.4180    7.0690 C.ar  128  HIS128      0.1986
    134  NE2       40.9200   26.9370    6.7520 N.ar  128  HIS128     -0.2212
    135  N         38.1930   31.7750    1.5510 N.3   133  THR133     -0.1203
    136  CA        38.3090   30.3960    1.0850 C.3   133  THR133      0.1994
    137  C         39.2240   30.2720   -0.1260 C.2   133  THR133      0.2618
    138  O         39.7820   31.2620   -0.6020 O.2   133  THR133     -0.2717
    139  CB        36.9300   29.8280    0.6840 C.3   133  THR133      0.1784
    140  OG1       36.5710   30.3390   -0.6050 O.3   133  THR133     -0.2211
    141  CG2       35.8630   30.2360    1.6980 C.3   133  THR133      0.0376
    142  N         39.3600   29.0480   -0.6270 N.am  134  ASN134     -0.1960
    143  CA        40.2000   28.7860   -1.7840 C.3   134  ASN134      0.1819
    144  C         39.5860   29.3790   -3.0540 C.2   134  ASN134      0.2621
    145  O         40.2280   29.4200   -4.1050 O.2   134  ASN134     -0.2715
    146  CB        40.3970   27.2830   -1.9720 C.3   134  ASN134      0.1195
    147  CG        41.6760   26.9560   -2.7290 C.2   134  ASN134      0.2630
    148  OD1       41.7200   26.0160   -3.5250 O.2   134  ASN134     -0.2716
    149  ND2       42.7260   27.7280   -2.4730 N.am  134  ASN134     -0.0877
    150  N         38.3390   29.8310   -2.9520 N.am  135  LEU135     -0.1977
    151  CA        37.6540   30.4310   -4.0920 C.3   135  LEU135      0.1596
    152  C         37.6840   31.9510   -3.9970 C.2   135  LEU135      0.2287
    153  O         37.3370   32.6470   -4.9480 O.2   135  LEU135     -0.2864
    154  CB        36.2110   29.9230   -4.1710 C.3   135  LEU135      0.0297
    155  CG        36.0870   28.4320   -4.4890 C.3   135  LEU135      0.0022
    156  CD1       34.6360   28.0090   -4.4660 C.3   135  LEU135      0.0001
    157  CD2       36.7000   28.1540   -5.8530 C.3   135  LEU135      0.0001
    158  N         44.4750   30.1880   -0.6600 N.3   142  HIS142     -0.1226
    159  CA        44.1950   29.5010    0.5940 C.3   142  HIS142      0.1752
    160  C         44.9270   28.1570    0.6980 C.2   142  HIS142      0.2596
    161  O         45.6330   27.9030    1.6790 O.2   142  HIS142     -0.2718
    162  CB        42.6860   29.2860    0.7360 C.3   142  HIS142      0.0759
    163  CG        42.2720   28.7170    2.0580 C.ar  142  HIS142      0.0818
    164  ND1       41.4070   29.3690    2.9100 N.ar  142  HIS142     -0.2268
    165  CD2       42.5660   27.5360    2.6510 C.ar  142  HIS142      0.1154
    166  CE1       41.1800   28.6120    3.9670 C.ar  142  HIS142      0.1986
    167  NE2       41.8700   27.4940    3.8350 N.ar  142  HIS142     -0.2212
    168  N         44.7690   27.2960   -0.3020 N.am  143  SER143     -0.1952
    169  CA        45.4190   25.9890   -0.2480 C.3   143  SER143      0.1924
    170  C         46.9400   26.0480   -0.4070 C.2   143  SER143      0.2314
    171  O         47.6580   25.3050    0.2570 O.2   143  SER143     -0.2863
    172  CB        44.8120   25.0370   -1.2910 C.3   143  SER143      0.2116
    173  OG        45.0690   25.4750   -2.6120 O.3   143  SER143     -0.2180
    174  N         48.4080   27.0410    2.9590 N.3   146  GLU146     -0.1245
    175  CA        48.4240   25.9590    3.9390 C.3   146  GLU146      0.1567
    176  C         49.4290   24.8560    3.5880 C.2   146  GLU146      0.2260
    177  O         49.9340   24.1700    4.4740 O.2   146  GLU146     -0.2867
    178  CB        47.0140   25.3920    4.1240 C.3   146  GLU146      0.0388
    179  CG        46.0380   26.4490    4.6500 C.3   146  GLU146      0.1160
    180  CD        44.6720   25.8900    4.9920 C.2   146  GLU146      0.3649
    181  OE1       44.2050   24.9770    4.2850 O.co2 146  GLU146     -0.2457
    182  OE2       44.0600   26.3760    5.9620 O.co2 146  GLU146     -0.2457
@<TRIPOS>BOND
     1   157   155    1
     2   153   152    2
     3   155   156    1
     4   155   154    1
     5   154   151    1
     6   145   144    2
     7   151   152    1
     8   151   150    1
     9   148   147    2
    10   144   150   am
    11   144   143    1
    12   147   149   am
    13   147   146    1
    14   173   172    1
    15   146   143    1
    16   143   142    1
    17   172   169    1
    18    54    55    1
    19    54    51    1
    20   158   159    1
    21   142   137   am
    22    53    52    2
    23   140   139    1
    24   138   137    2
    25   170   169    1
    26   170   171    2
    27   168   169    1
    28   168   160   am
    29   137   136    1
    30    62    60    1
    31    52    51    1
    32    52    56   am
    33    51    50    1
    34   159   160    1
    35   159   162    1
    36   139   136    1
    37   139   141    1
    38   160   161    2
    39   162   163    1
    40   106   105    1
    41   104   105   ar
    42   104   102   ar
    43    56    57    1
    44    57    60    1
    45    57    58    1
    46    29    27   ar
    47   136   135    1
    48    60    61    1
    49    71    69   ar
    50    71    73   ar
    51   105   103   ar
    52   102   100   ar
    53   163   165   ar
    54   163   164   ar
    55    46    44   ar
    56    46    48   ar
    57    69    68   ar
    58    58    59    2
    59    58    63   am
    60    27    26    1
    61    27    28   ar
    62    73    72   ar
    63    44    43   ar
    64    98    97    2
    65   165   167   ar
    66    49    48    1
    67    26    25    1
    68   103   101   ar
    69   100   101   ar
    70   100    99    1
    71   164   166   ar
    72   174   175    1
    73    41    40    2
    74    25    22    1
    75    48    47   ar
    76    63    64    1
    77    68    67    1
    78    68    70   ar
    79    97    96    1
    80   176   175    1
    81   176   177    2
    82    99    96    1
    83    24    23    2
    84    33    32    2
    85    72    70   ar
    86    43    42    1
    87    43    45   ar
    88   167   166   ar
    89   175   178    1
    90    40    39    1
    91    22    23    1
    92    22    21    1
    93    39    42    1
    94    39    38    1
    95   178   179    1
    96    67    64    1
    97   181   180   ar
    98    96    95    1
    99    47    45   ar
   100    64    65    1
   101    94    92   ar
   102    94    93   ar
   103   179   180    1
   104    32    38   am
   105    32    31    1
   106   180   182   ar
   107    92    90   ar
   108    93    91   ar
   109    65    66    2
   110    19    16    1
   111    19    20    1
   112    34    31    1
   113    34    35    1
   114    31    30    1
   115    16    15    1
   116    16    17    1
   117    90    89   ar
   118    91    89   ar
   119    37    35   am
   120    35    36    2
   121    89    88    1
   122   134   133   ar
   123   134   132   ar
   124    15     3   am
   125    17    18    2
   126   133   131   ar
   127     4     3    2
   128     3     2    1
   129   132   130   ar
   130    88    85    1
   131   125   126    1
   132   131   130   ar
   133    81    83   ar
   134    81    79   ar
   135    83    82   ar
   136     2     1    1
   137     2     5    1
   138    82    80   ar
   139    79    80   ar
   140    79    78    1
   141    78    75    1
   142   130   129    1
   143   126   129    1
   144   126   127    1
   145    74    75    1
   146    84    85    1
   147    84    76   am
   148    85    86    1
   149    75    76    1
   150    76    77    2
   151   127   128    2
   152    11    13   ar
   153    11     8   ar
   154     5     6    1
   155    13    14   ar
   156   115   116   ar
   157   115   113   ar
   158   123   122   ar
   159   124   122   ar
   160   116   114   ar
   161   122   121    1
   162    86    87    2
   163     8     6   ar
   164     8    10   ar
   165     6     7   ar
   166    14    12   ar
   167   113   112   ar
   168   114   112   ar
   169   121   118    1
   170    10    12   ar
   171    10     9   ar
   172     7     9   ar
   173   120   119    2
   174   112   111    1
   175   118   119    1
   176   118   117    1
   177   111   108    1
   178   110   109    2
   179   109   108    1
   180   108   107    1
