@<TRIPOS>MOLECULE
tmp/1p6eA00.pdb
 200 198 0 0 0
SMALL
GASTEIGER

@<TRIPOS>ATOM
      1  N         44.1070   24.6790    8.3000 N.3     1  TRP1       -0.1227
      2  CA        45.4380   24.0390    8.0940 C.3     1  TRP1        0.1737
      3  C         45.2820   22.7150    7.3610 C.2     1  TRP1        0.2596
      4  O         44.1880   22.1720    7.2660 O.2     1  TRP1       -0.2718
      5  CB        46.1120   23.7900    9.4360 C.3     1  TRP1        0.0564
      6  CG        46.0600   24.9600   10.3490 C.ar    1  TRP1        0.0003
      7  CD1       45.2510   25.1150   11.4410 C.ar    1  TRP1        0.0946
      8  CD2       46.8600   26.1400   10.2710 C.ar    1  TRP1        0.0152
      9  NE1       45.5020   26.3170   12.0530 N.ar    1  TRP1       -0.2442
     10  CE2       46.4850   26.9700   11.3570 C.ar    1  TRP1        0.0810
     11  CE3       47.8600   26.5800    9.3900 C.ar    1  TRP1        0.0012
     12  CZ2       47.0780   28.2220   11.5880 C.ar    1  TRP1        0.0191
     13  CZ3       48.4500   27.8240    9.6180 C.ar    1  TRP1        0.0001
     14  CH2       48.0550   28.6300   10.7120 C.ar    1  TRP1        0.0015
     15  N         46.3890   22.2000    6.8470 N.am    2  SER2       -0.1952
     16  CA        46.3870   20.9450    6.1200 C.3     2  SER2        0.1924
     17  C         46.0940   19.7440    7.0200 C.2     2  SER2        0.2314
     18  O         46.1700   19.8180    8.2460 O.2     2  SER2       -0.2863
     19  CB        47.7480   20.7290    5.4460 C.3     2  SER2        0.2116
     20  OG        48.7290   20.3920    6.4110 O.3     2  SER2       -0.2180
     21  N         46.4850   16.3360    5.1070 N.3     4  GLU4       -0.1245
     22  CA        46.5970   15.4390    3.9590 C.3     4  GLU4        0.1567
     23  C         46.8360   13.9760    4.3150 C.2     4  GLU4        0.2260
     24  O         46.4790   13.0810    3.5520 O.2     4  GLU4       -0.2867
     25  CB        47.7300   15.8930    3.0370 C.3     4  GLU4        0.0388
     26  CG        47.9070   17.3970    2.9050 C.3     4  GLU4        0.1160
     27  CD        46.6460   18.1120    2.4660 C.2     4  GLU4        0.3649
     28  OE1       45.7620   18.3470    3.3230 O.co2   4  GLU4       -0.2457
     29  OE2       46.5400   18.4350    1.2630 O.co2   4  GLU4       -0.2457
     30  N         47.3130   20.0010   11.1440 N.3    14  HIS14      -0.1241
     31  CA        46.3610   19.7710   12.2290 C.3    14  HIS14       0.1621
     32  C         46.8830   18.8040   13.2770 C.2    14  HIS14       0.2264
     33  O         46.7780   19.0700   14.4780 O.2    14  HIS14      -0.2867
     34  CB        45.0300   19.2590   11.6750 C.3    14  HIS14       0.0745
     35  CG        44.1070   20.3530   11.2500 C.ar   14  HIS14       0.0817
     36  ND1       43.4650   21.1710   12.1540 N.ar   14  HIS14      -0.2268
     37  CD2       43.7650   20.8050   10.0200 C.ar   14  HIS14       0.1154
     38  CE1       42.7670   22.0830   11.5000 C.ar   14  HIS14       0.1986
     39  NE2       42.9320   21.8840   10.2040 N.ar   14  HIS14      -0.2212
     40  N         38.0140   16.6370    7.3340 N.3    55  ASN55      -0.1225
     41  CA        38.2170   17.1470    5.9780 C.3    55  ASN55       0.1785
     42  C         37.8340   16.2240    4.8340 C.2    55  ASN55       0.2597
     43  O         37.7980   16.6570    3.6780 O.2    55  ASN55      -0.2718
     44  CB        39.6810   17.5420    5.7750 C.3    55  ASN55       0.1169
     45  CG        39.9770   18.9400    6.2650 C.2    55  ASN55       0.2627
     46  OD1       39.1080   19.6090    6.8200 O.2    55  ASN55      -0.2716
     47  ND2       41.2060   19.3880    6.0640 N.am   55  ASN55      -0.0877
     48  N         37.5350   14.9670    5.1300 N.am   56  TYR56      -0.1976
     49  CA        37.2380   14.0370    4.0500 C.3    56  TYR56       0.1639
     50  C         35.8780   13.3500    3.9630 C.2    56  TYR56       0.2290
     51  O         35.6530   12.5690    3.0410 O.2    56  TYR56      -0.2864
     52  CB        38.3520   12.9940    4.0130 C.3    56  TYR56       0.0560
     53  CG        39.6780   13.6000    3.6170 C.ar   56  TYR56      -0.0198
     54  CD1       40.0250   13.7370    2.2730 C.ar   56  TYR56      -0.0009
     55  CD2       40.5630   14.0910    4.5810 C.ar   56  TYR56      -0.0009
     56  CE1       41.2180   14.3460    1.8970 C.ar   56  TYR56       0.0417
     57  CE2       41.7610   14.7050    4.2130 C.ar   56  TYR56       0.0417
     58  CZ        42.0800   14.8250    2.8690 C.ar   56  TYR56       0.1957
     59  OH        43.2630   15.4090    2.4870 O.3    56  TYR56      -0.2866
     60  N         31.7810   18.7720    0.8440 N.3    64  SER64      -0.1202
     61  CA        32.9360   19.3720    0.1810 C.3    64  SER64       0.2020
     62  C         32.9390   20.8900    0.1080 C.2    64  SER64       0.2619
     63  O         33.5880   21.4590   -0.7660 O.2    64  SER64      -0.2717
     64  CB        33.0960   18.8150   -1.2340 C.3    64  SER64       0.2103
     65  OG        33.4760   17.4550   -1.1950 O.3    64  SER64      -0.2182
     66  N         32.2180   21.5500    1.0070 N.am   65  THR65      -0.1938
     67  CA        32.2030   23.0110    1.0180 C.3    65  THR65       0.2028
     68  C         32.9460   23.4890    2.2570 C.2    65  THR65       0.2642
     69  O         33.2710   24.6690    2.3770 O.2    65  THR65      -0.2714
     70  CB        30.7760   23.5900    1.0750 C.3    65  THR65       0.1808
     71  OG1       30.1800   23.2510    2.3290 O.3    65  THR65      -0.2208
     72  CG2       29.9240   23.0430   -0.0590 C.3    65  THR65       0.0379
     73  N         33.1990   22.5610    3.1780 N.am   66  PHE66      -0.1973
     74  CA        33.9030   22.8540    4.4250 C.3    66  PHE66       0.1639
     75  C         33.3510   24.0580    5.1770 C.2    66  PHE66       0.2290
     76  O         34.0830   24.7180    5.9110 O.2    66  PHE66      -0.2864
     77  CB        35.3960   23.0740    4.1580 C.3    66  PHE66       0.0560
     78  CG        36.0820   21.8850    3.5670 C.ar   66  PHE66      -0.0200
     79  CD1       35.9740   21.6090    2.2090 C.ar   66  PHE66      -0.0042
     80  CD2       36.8330   21.0340    4.3680 C.ar   66  PHE66      -0.0042
     81  CE1       36.6090   20.4990    1.6500 C.ar   66  PHE66      -0.0003
     82  CE2       37.4750   19.9160    3.8230 C.ar   66  PHE66      -0.0003
     83  CZ        37.3630   19.6500    2.4600 C.ar   66  PHE66      -0.0000
     84  N         34.1120   24.5870    8.8170 N.3    69  HIS69      -0.1226
     85  CA        35.5090   24.8350    9.1590 C.3    69  HIS69       0.1752
     86  C         35.8160   26.3370    9.2120 C.2    69  HIS69       0.2596
     87  O         36.9680   26.7320    9.3440 O.2    69  HIS69      -0.2718
     88  CB        36.4110   24.1440    8.1300 C.3    69  HIS69       0.0759
     89  CG        36.2090   22.6640    8.0680 C.ar   69  HIS69       0.0818
     90  ND1       37.0940   21.7700    8.6210 N.ar   69  HIS69      -0.2268
     91  CD2       35.1730   21.9270    7.6030 C.ar   69  HIS69       0.1154
     92  CE1       36.6140   20.5450    8.5040 C.ar   69  HIS69       0.1986
     93  NE2       35.4490   20.6130    7.8920 N.ar   69  HIS69      -0.2212
     94  N         34.7830   27.1690    9.1060 N.am   70  PHE70      -0.1976
     95  CA        34.9710   28.6130    9.1510 C.3    70  PHE70       0.1639
     96  C         34.1020   29.2400   10.2280 C.2    70  PHE70       0.2290
     97  O         33.0360   28.7190   10.5670 O.2    70  PHE70      -0.2864
     98  CB        34.6300   29.2550    7.7980 C.3    70  PHE70       0.0560
     99  CG        35.5420   28.8340    6.6720 C.ar   70  PHE70      -0.0200
    100  CD1       35.4770   27.5470    6.1430 C.ar   70  PHE70      -0.0042
    101  CD2       36.4760   29.7180    6.1520 C.ar   70  PHE70      -0.0042
    102  CE1       36.3330   27.1490    5.1140 C.ar   70  PHE70      -0.0003
    103  CE2       37.3320   29.3250    5.1210 C.ar   70  PHE70      -0.0003
    104  CZ        37.2570   28.0390    4.6050 C.ar   70  PHE70      -0.0000
    105  N         31.2510   31.2100    5.7260 N.3    79  TYR79      -0.1241
    106  CA        31.1480   31.8640    4.4250 C.3    79  TYR79       0.1605
    107  C         29.8900   31.5600    3.6040 C.2    79  TYR79       0.2264
    108  O         29.6600   32.1720    2.5540 O.2    79  TYR79      -0.2867
    109  CB        32.4010   31.5820    3.5830 C.3    79  TYR79       0.0534
    110  CG        32.4310   30.2410    2.8840 C.ar   79  TYR79      -0.0201
    111  CD1       32.7100   29.0660    3.5810 C.ar   79  TYR79      -0.0009
    112  CD2       32.2110   30.1560    1.5110 C.ar   79  TYR79      -0.0009
    113  CE1       32.7760   27.8400    2.9180 C.ar   79  TYR79       0.0417
    114  CE2       32.2710   28.9520    0.8480 C.ar   79  TYR79       0.0417
    115  CZ        32.5550   27.7940    1.5470 C.ar   79  TYR79       0.1957
    116  OH        32.6290   26.5990    0.8590 O.3    79  TYR79      -0.2866
    117  N         40.1850   19.5550   15.5880 N.3   118  HIS118     -0.1241
    118  CA        40.3510   20.0110   14.2140 C.3   118  HIS118      0.1621
    119  C         39.6820   21.3720   13.9920 C.2   118  HIS118      0.2264
    120  O         40.2660   22.2640   13.3840 O.2   118  HIS118     -0.2867
    121  CB        39.7490   18.9940   13.2460 C.3   118  HIS118      0.0745
    122  CG        39.9110   19.3640   11.8050 C.ar  118  HIS118      0.0817
    123  ND1       40.7590   18.6880   10.9530 N.ar  118  HIS118     -0.2268
    124  CD2       39.3450   20.3510   11.0690 C.ar  118  HIS118      0.1154
    125  CE1       40.7070   19.2410    9.7550 C.ar  118  HIS118      0.1986
    126  NE2       39.8570   20.2520    9.7970 N.ar  118  HIS118     -0.2212
    127  N         41.2670   25.0920   13.1200 N.3   122  ASP122     -0.1239
    128  CA        40.9580   25.9430   11.9770 C.3   122  ASP122      0.1674
    129  C         40.7410   27.4230   12.2680 C.2   122  ASP122      0.2266
    130  O         41.1380   28.2620   11.4640 O.2   122  ASP122     -0.2867
    131  CB        39.7470   25.4050   11.2280 C.3   122  ASP122      0.1410
    132  CG        40.1180   24.3210   10.2550 C.2   122  ASP122      0.3668
    133  OD1       41.2950   24.2870    9.8320 O.co2 122  ASP122     -0.2456
    134  OD2       39.2420   23.5160    9.9030 O.co2 122  ASP122     -0.2456
    135  N         40.3680   31.2740    7.9780 N.3   128  HIS128     -0.1241
    136  CA        39.1690   30.5960    8.4350 C.3   128  HIS128      0.1621
    137  C         38.3460   31.4760    9.3560 C.2   128  HIS128      0.2264
    138  O         37.1440   31.2960    9.4820 O.2   128  HIS128     -0.2867
    139  CB        39.5450   29.3040    9.1440 C.3   128  HIS128      0.0745
    140  CG        39.9200   28.2040    8.2070 C.ar  128  HIS128      0.0817
    141  ND1       39.0480   27.1950    7.8640 N.ar  128  HIS128     -0.2268
    142  CD2       41.0460   27.9920    7.4880 C.ar  128  HIS128      0.1154
    143  CE1       39.6190   26.4100    6.9700 C.ar  128  HIS128      0.1986
    144  NE2       40.8320   26.8720    6.7240 N.ar  128  HIS128     -0.2212
    145  N         38.1920   31.8410    1.5340 N.3   133  THR133     -0.1203
    146  CA        38.3000   30.4510    1.0960 C.3   133  THR133      0.1994
    147  C         39.2140   30.3160   -0.1160 C.2   133  THR133      0.2618
    148  O         39.7720   31.2980   -0.6000 O.2   133  THR133     -0.2717
    149  CB        36.9220   29.8820    0.6950 C.3   133  THR133      0.1784
    150  OG1       36.5460   30.4140   -0.5810 O.3   133  THR133     -0.2211
    151  CG2       35.8610   30.2670    1.7160 C.3   133  THR133      0.0376
    152  N         39.3410   29.0960   -0.6200 N.am  134  ASN134     -0.1960
    153  CA        40.1870   28.8370   -1.7740 C.3   134  ASN134      0.1819
    154  C         39.5900   29.4120   -3.0590 C.2   134  ASN134      0.2621
    155  O         40.2520   29.4480   -4.1000 O.2   134  ASN134     -0.2715
    156  CB        40.4080   27.3320   -1.9400 C.3   134  ASN134      0.1195
    157  CG        41.6210   27.0200   -2.7910 C.2   134  ASN134      0.2630
    158  OD1       41.5730   26.1640   -3.6740 O.2   134  ASN134     -0.2716
    159  ND2       42.7230   27.7140   -2.5250 N.am  134  ASN134     -0.0877
    160  N         38.3350   29.8510   -2.9900 N.am  135  LEU135     -0.1977
    161  CA        37.6790   30.4370   -4.1550 C.3   135  LEU135      0.1596
    162  C         37.7050   31.9570   -4.0550 C.2   135  LEU135      0.2287
    163  O         37.3580   32.6590   -5.0040 O.2   135  LEU135     -0.2864
    164  CB        36.2410   29.9270   -4.2810 C.3   135  LEU135      0.0297
    165  CG        36.1280   28.4470   -4.6700 C.3   135  LEU135      0.0022
    166  CD1       34.6810   28.0310   -4.7060 C.3   135  LEU135      0.0001
    167  CD2       36.7760   28.2230   -6.0330 C.3   135  LEU135      0.0001
    168  N         44.5340   30.2560   -0.7010 N.3   142  HIS142     -0.1226
    169  CA        44.2270   29.5880    0.5510 C.3   142  HIS142      0.1752
    170  C         44.9240   28.2270    0.6830 C.2   142  HIS142      0.2596
    171  O         45.5950   27.9650    1.6840 O.2   142  HIS142     -0.2718
    172  CB        42.7070   29.4230    0.6700 C.3   142  HIS142      0.0759
    173  CG        42.2580   28.8370    1.9710 C.ar  142  HIS142      0.0818
    174  ND1       41.2380   29.3850    2.7190 N.ar  142  HIS142     -0.2268
    175  CD2       42.6660   27.7350    2.6420 C.ar  142  HIS142      0.1154
    176  CE1       41.0360   28.6460    3.7930 C.ar  142  HIS142      0.1986
    177  NE2       41.8880   27.6390    3.7690 N.ar  142  HIS142     -0.2212
    178  N         44.7720   27.3590   -0.3150 N.am  143  SER143     -0.1952
    179  CA        45.3960   26.0430   -0.2350 C.3   143  SER143      0.1924
    180  C         46.9150   26.0780   -0.4140 C.2   143  SER143      0.2314
    181  O         47.6240   25.3080    0.2280 O.2   143  SER143     -0.2863
    182  CB        44.7690   25.0790   -1.2490 C.3   143  SER143      0.2116
    183  OG        45.0490   25.4730   -2.5790 O.3   143  SER143     -0.2180
    184  N         48.4060   27.0510    2.9610 N.3   146  GLU146     -0.1231
    185  CA        48.4100   25.9500    3.9200 C.3   146  GLU146      0.1699
    186  C         49.3980   24.8440    3.5780 C.2   146  GLU146      0.2592
    187  O         49.8520   24.1280    4.4670 O.2   146  GLU146     -0.2718
    188  CB        47.0000   25.3850    4.0850 C.3   146  GLU146      0.0402
    189  CG        46.0500   26.4340    4.6110 C.3   146  GLU146      0.1161
    190  CD        44.6780   25.8920    4.9220 C.2   146  GLU146      0.3649
    191  OE1       44.2210   24.9850    4.2000 O.co2 146  GLU146     -0.2457
    192  OE2       44.0510   26.3890    5.8800 O.co2 146  GLU146     -0.2457
    193  N         49.7260   24.7060    2.2940 N.am  147  ASN147     -0.1974
    194  CA        50.7060   23.7090    1.8650 C.3   147  ASN147      0.1688
    195  C         52.0960   24.2310    2.2370 C.2   147  ASN147      0.2292
    196  O         52.9420   23.4860    2.7190 O.2   147  ASN147     -0.2864
    197  CB        50.6280   23.4850    0.3560 C.3   147  ASN147      0.1181
    198  CG        49.4660   22.5910   -0.0460 C.2   147  ASN147      0.2629
    199  OD1       49.0280   22.6140   -1.2000 O.2   147  ASN147     -0.2716
    200  ND2       48.9670   21.7910    0.8990 N.am  147  ASN147     -0.0877
@<TRIPOS>BOND
     1   167   165    1
     2   163   162    2
     3   166   165    1
     4   165   164    1
     5   164   161    1
     6   161   162    1
     7   161   160    1
     8   155   154    2
     9   158   157    2
    10   154   160   am
    11   154   153    1
    12   157   159   am
    13   157   156    1
    14   183   182    1
    15   156   153    1
    16   153   152    1
    17   182   179    1
    18    64    65    1
    19    64    61    1
    20   199   198    2
    21    63    62    2
    22   168   169    1
    23   152   147   am
    24   148   147    2
    25   150   149    1
    26   180   179    1
    27   180   181    2
    28   178   179    1
    29   178   170   am
    30   147   146    1
    31    72    70    1
    32   198   197    1
    33   198   200   am
    34    62    61    1
    35    62    66   am
    36    61    60    1
    37   197   194    1
    38   169   172    1
    39   169   170    1
    40   172   173    1
    41   170   171    2
    42   149   146    1
    43   149   151    1
    44   114   112   ar
    45   114   115   ar
    46   116   115    1
    47    66    67    1
    48    67    70    1
    49    67    68    1
    50    70    71    1
    51   146   145    1
    52    29    27   ar
    53   112   110   ar
    54   115   113   ar
    55    81    79   ar
    56    81    83   ar
    57   194   195    1
    58   194   193    1
    59    56    54   ar
    60    56    58   ar
    61   173   175   ar
    62   173   174   ar
    63    79    78   ar
    64   195   196    2
    65    68    69    2
    66    68    73   am
    67    54    53   ar
    68   193   186   am
    69    83    82   ar
    70    27    26    1
    71    27    28   ar
    72    59    58    1
    73   108   107    2
    74   175   177   ar
    75   174   176   ar
    76    58    57   ar
    77   110   111   ar
    78   110   109    1
    79    26    25    1
    80   113   111   ar
    81   184   185    1
    82    25    22    1
    83    51    50    2
    84    73    74    1
    85    24    23    2
    86    78    77    1
    87    78    80   ar
    88   186   185    1
    89   186   187    2
    90   109   106    1
    91   107   106    1
    92    53    52    1
    93    53    55   ar
    94    43    42    2
    95   177   176   ar
    96    82    80   ar
    97   185   188    1
    98    22    23    1
    99    22    21    1
   100    50    49    1
   101    52    49    1
   102    49    48    1
   103   188   189    1
   104    77    74    1
   105   191   190   ar
   106    57    55   ar
   107    74    75    1
   108   106   105    1
   109   104   102   ar
   110   104   103   ar
   111   189   190    1
   112    42    48   am
   113    42    41    1
   114   190   192   ar
   115   102   100   ar
   116   103   101   ar
   117    75    76    2
   118    19    16    1
   119    19    20    1
   120    44    41    1
   121    44    45    1
   122    41    40    1
   123    47    45   am
   124    16    15    1
   125    16    17    1
   126   100    99   ar
   127   101    99   ar
   128    45    46    2
   129    99    98    1
   130   144   143   ar
   131   144   142   ar
   132    15     3   am
   133   143   141   ar
   134    17    18    2
   135     4     3    2
   136     3     2    1
   137   142   140   ar
   138    91    93   ar
   139    91    89   ar
   140    98    95    1
   141   141   140   ar
   142    93    92   ar
   143   135   136    1
   144    89    88    1
   145    89    90   ar
   146     2     1    1
   147     2     5    1
   148    88    85    1
   149   140   139    1
   150   136   139    1
   151   136   137    1
   152    92    90   ar
   153    84    85    1
   154    94    95    1
   155    94    86   am
   156    95    96    1
   157    85    86    1
   158    86    87    2
   159   137   138    2
   160    11    13   ar
   161    11     8   ar
   162     5     6    1
   163    13    14   ar
   164   125   126   ar
   165   125   123   ar
   166   126   124   ar
   167   133   132   ar
   168   134   132   ar
   169    37    39   ar
   170    37    35   ar
   171    39    38   ar
   172    96    97    2
   173   132   131    1
   174     8     6   ar
   175     8    10   ar
   176     6     7   ar
   177    14    12   ar
   178   123   122   ar
   179   124   122   ar
   180    30    31    1
   181   131   128    1
   182    35    34    1
   183    35    36   ar
   184    10    12   ar
   185    10     9   ar
   186     7     9   ar
   187   130   129    2
   188    38    36   ar
   189    34    31    1
   190   122   121    1
   191   128   129    1
   192   128   127    1
   193    31    32    1
   194   121   118    1
   195    32    33    2
   196   120   119    2
   197   119   118    1
   198   118   117    1
