@<TRIPOS>MOLECULE
tmp/1p6iA02.pdb
 166 162 0 0 0
SMALL
GASTEIGER

@<TRIPOS>ATOM
      1  N          2.9480    8.9770   34.7920 N.3    38  MET38      -0.1245
      2  CA         3.4010    8.6670   33.4360 C.3    38  MET38       0.1570
      3  C          3.2040    9.7980   32.4290 C.2    38  MET38       0.2261
      4  O          4.0770   10.0340   31.5940 O.2    38  MET38      -0.2867
      5  CB         2.7100    7.3980   32.9160 C.3    38  MET38       0.0387
      6  CG         3.0750    6.1340   33.6790 C.3    38  MET38       0.0595
      7  SD         2.7960    4.6160   32.7230 S.3    38  MET38      -0.1393
      8  CE         4.3650    4.4630   31.9160 C.3    38  MET38       0.0692
      9  N         15.0330    7.4120   28.6310 N.3   106  CYS106     -0.1235
     10  CA        15.8070    6.3960   27.9170 C.3   106  CYS106      0.1677
     11  C         17.1370    6.0880   28.5910 C.2   106  CYS106      0.2270
     12  O         17.9740    6.9700   28.7620 O.2   106  CYS106     -0.2867
     13  CB        16.0730    6.8560   26.4790 C.3   106  CYS106      0.0956
     14  SG        16.9870    5.6700   25.4640 S.3   106  CYS106     -0.0801
     15  N          1.8750    1.5990   17.7110 N.3   168  SER168     -0.1202
     16  CA         2.5790    2.2050   18.8400 C.3   168  SER168      0.2020
     17  C          4.0640    1.9040   18.6370 C.2   168  SER168      0.2618
     18  O          4.9310    2.6390   19.0910 O.2   168  SER168     -0.2717
     19  CB         2.0820    1.6080   20.1570 C.3   168  SER168      0.2103
     20  OG         2.1370    0.1980   20.1160 O.3   168  SER168     -0.2182
     21  N          4.3270    0.8060   17.9390 N.am  169  GLN169     -0.1979
     22  CA         5.6720    0.3620   17.5930 C.3   169  GLN169      0.1601
     23  C          5.5180   -0.2520   16.2040 C.2   169  GLN169      0.2287
     24  O          4.4770   -0.8420   15.9030 O.2   169  GLN169     -0.2864
     25  CB         6.1690   -0.7130   18.5570 C.3   169  GLN169      0.0394
     26  CG         6.4760   -0.2350   19.9610 C.3   169  GLN169      0.0908
     27  CD         6.7950   -1.3900   20.8860 C.2   169  GLN169      0.2608
     28  OE1        7.7560   -2.1370   20.6650 O.2   169  GLN169     -0.2717
     29  NE2        5.9810   -1.5560   21.9220 N.am  169  GLN169     -0.0878
     30  N          4.6070   -5.1200   16.6520 N.3   172  ARG172     -0.1245
     31  CA         3.9510   -5.5580   17.8810 C.3   172  ARG172      0.1563
     32  C          3.0120   -6.7160   17.5490 C.2   172  ARG172      0.2260
     33  O          2.6380   -6.9130   16.3950 O.2   172  ARG172     -0.2867
     34  CB         3.1430   -4.4260   18.5180 C.3   172  ARG172      0.0307
     35  CG         3.9740   -3.2720   19.0430 C.3   172  ARG172      0.0489
     36  CD         3.1960   -2.4440   20.0590 C.3   172  ARG172      0.2205
     37  NE         3.1950   -3.0570   21.3850 N.pl3 172  ARG172     -0.0865
     38  CZ         2.5480   -2.5590   22.4350 C.cat 172  ARG172      0.5346
     39  NH1        1.8470   -1.4410   22.3130 N.pl3 172  ARG172      0.1354
     40  NH2        2.6060   -3.1760   23.6100 N.pl3 172  ARG172      0.1354
     41  N         12.7750   -3.1990   18.5820 N.3   256  PRO256     -0.2116
     42  CA        11.8740   -2.3330   19.3440 C.3   256  PRO256      0.1372
     43  C         11.8340   -1.0340   18.5320 C.2   256  PRO256      0.2244
     44  O         12.8810   -0.4270   18.2610 O.2   256  PRO256     -0.2868
     45  CB        12.5860   -2.1890   20.6840 C.3   256  PRO256      0.0268
     46  CG        14.0330   -2.2380   20.3050 C.3   256  PRO256      0.0207
     47  CD        14.1020   -3.2960   19.2200 C.3   256  PRO256      0.0892
     48  N          9.5100    2.3670   18.5600 N.3   258  VAL258     -0.1245
     49  CA         8.4750    3.3310   18.9110 C.3   258  VAL258      0.1561
     50  C          8.1050    4.1480   17.6800 C.2   258  VAL258      0.2260
     51  O          8.9600    4.7700   17.0570 O.2   258  VAL258     -0.2867
     52  CB         8.9710    4.3030   19.9980 C.3   258  VAL258      0.0252
     53  CG1        7.9090    5.3750   20.2660 C.3   258  VAL258      0.0019
     54  CG2        9.2980    3.5280   21.2710 C.3   258  VAL258      0.0019
     55  N         11.2800    5.3780   15.4210 N.3   275  PHE275     -0.1227
     56  CA        12.6910    5.1690   15.7030 C.3   275  PHE275      0.1736
     57  C         12.8990    3.8200   16.3610 C.2   275  PHE275      0.2596
     58  O         11.9800    3.2560   16.9530 O.2   275  PHE275     -0.2718
     59  CB        13.2330    6.2900   16.5950 C.3   275  PHE275      0.0547
     60  CG        12.5470    6.4030   17.9290 C.ar  275  PHE275     -0.0202
     61  CD1       12.7980    5.4810   18.9420 C.ar  275  PHE275     -0.0042
     62  CD2       11.6820    7.4580   18.1870 C.ar  275  PHE275     -0.0042
     63  CE1       12.1990    5.6170   20.1990 C.ar  275  PHE275     -0.0003
     64  CE2       11.0780    7.6030   19.4370 C.ar  275  PHE275     -0.0003
     65  CZ        11.3380    6.6840   20.4420 C.ar  275  PHE275     -0.0000
     66  N         14.1190    3.3110   16.2620 N.am  276  SER276     -0.1938
     67  CA        14.4350    2.0170   16.8290 C.3   276  SER276      0.2055
     68  C         15.8950    1.9350   17.2240 C.2   276  SER276      0.2644
     69  O         16.7310    2.6430   16.6740 O.2   276  SER276     -0.2714
     70  CB        14.1300    0.9120   15.8050 C.3   276  SER276      0.2130
     71  OG        14.9350    1.0540   14.6390 O.3   276  SER276     -0.2179
     72  N         16.1730    1.0590   18.1860 N.am  277  GLY277     -0.1939
     73  CA        17.5240    0.8170   18.6640 C.3   277  GLY277      0.2014
     74  C         17.5700   -0.6920   18.8440 C.2   277  GLY277      0.2639
     75  O         17.6090   -1.4520   17.8750 O.2   277  GLY277     -0.2714
     76  N         17.5640   -1.1270   20.0940 N.am  278  TRP278     -0.1959
     77  CA        17.5380   -2.5470   20.4120 C.3   278  TRP278      0.1771
     78  C         17.0590   -2.6940   21.8420 C.2   278  TRP278      0.2619
     79  O         17.0840   -1.7450   22.6270 O.2   278  TRP278     -0.2715
     80  CB        18.9000   -3.2090   20.2190 C.3   278  TRP278      0.0590
     81  CG        20.0130   -2.5720   20.9540 C.ar  278  TRP278      0.0006
     82  CD1       20.3090   -2.6940   22.2810 C.ar  278  TRP278      0.0946
     83  CD2       21.0060   -1.7220   20.3920 C.ar  278  TRP278      0.0152
     84  NE1       21.4380   -1.9670   22.5800 N.ar  278  TRP278     -0.2442
     85  CE2       21.8870   -1.3610   21.4350 C.ar  278  TRP278      0.0810
     86  CE3       21.2410   -1.2290   19.1010 C.ar  278  TRP278      0.0012
     87  CZ2       22.9910   -0.5290   21.2260 C.ar  278  TRP278      0.0191
     88  CZ3       22.3380   -0.4000   18.8900 C.ar  278  TRP278      0.0001
     89  CH2       23.1990   -0.0600   19.9500 C.ar  278  TRP278      0.0015
     90  N         16.6180   -3.8950   22.1660 N.am  279  TYR279     -0.1974
     91  CA        16.0640   -4.1920   23.4770 C.3   279  TYR279      0.1639
     92  C         16.9850   -4.3410   24.6610 C.2   279  TYR279      0.2290
     93  O         18.1230   -4.7850   24.5360 O.2   279  TYR279     -0.2864
     94  CB        15.2610   -5.4890   23.4020 C.3   279  TYR279      0.0560
     95  CG        13.8260   -5.3160   23.0190 C.ar  279  TYR279     -0.0198
     96  CD1       13.3120   -5.9240   21.8770 C.ar  279  TYR279     -0.0009
     97  CD2       12.9570   -4.5870   23.8300 C.ar  279  TYR279     -0.0009
     98  CE1       11.9660   -5.8140   21.5540 C.ar  279  TYR279      0.0417
     99  CE2       11.6160   -4.4770   23.5150 C.ar  279  TYR279      0.0417
    100  CZ        11.1290   -5.0960   22.3760 C.ar  279  TYR279      0.1957
    101  OH         9.7970   -5.0060   22.0710 O.3   279  TYR279     -0.2866
    102  N         12.7900   -5.4420   29.2910 N.3   283  GLU283     -0.1245
    103  CA        11.6160   -4.9240   28.6030 C.3   283  GLU283      0.1567
    104  C         10.6840   -6.0670   28.2050 C.2   283  GLU283      0.2260
    105  O          9.4650   -5.9670   28.3420 O.2   283  GLU283     -0.2867
    106  CB        12.0110   -4.1520   27.3390 C.3   283  GLU283      0.0388
    107  CG        12.8090   -2.8860   27.5870 C.3   283  GLU283      0.1160
    108  CD        13.0540   -2.0980   26.3040 C.2   283  GLU283      0.3649
    109  OE1       12.0890   -1.5170   25.7650 O.co2 283  GLU283     -0.2457
    110  OE2       14.2020   -2.0650   25.8260 O.co2 283  GLU283     -0.2457
    111  N          8.5930   -6.9620   31.7580 N.3   287  ARG287     -0.1231
    112  CA         7.3710   -6.2530   31.4150 C.3   287  ARG287      0.1694
    113  C          6.4340   -6.9430   30.4160 C.2   287  ARG287      0.2592
    114  O          5.2870   -7.2320   30.7500 O.2   287  ARG287     -0.2718
    115  CB         7.7090   -4.8360   30.9130 C.3   287  ARG287      0.0321
    116  CG         8.5570   -3.9960   31.8910 C.3   287  ARG287      0.0489
    117  CD         7.9060   -3.8930   33.2810 C.3   287  ARG287      0.2205
    118  NE         6.5330   -3.4040   33.2040 N.pl3 287  ARG287     -0.0865
    119  CZ         6.1880   -2.1540   32.9030 C.cat 287  ARG287      0.5346
    120  NH1        7.1140   -1.2330   32.6500 N.pl3 287  ARG287      0.1354
    121  NH2        4.9010   -1.8260   32.8340 N.pl3 287  ARG287      0.1354
    122  N          6.9060   -7.1960   29.1960 N.am  288  ASP288     -0.1974
    123  CA         6.0570   -7.8240   28.1810 C.3   288  ASP288      0.1709
    124  C          5.5500   -9.1990   28.5990 C.2   288  ASP288      0.2293
    125  O          4.3830   -9.5190   28.3930 O.2   288  ASP288     -0.2864
    126  CB         6.7990   -7.9580   26.8400 C.3   288  ASP288      0.1436
    127  CG         7.1840   -6.6120   26.2440 C.2   288  ASP288      0.3671
    128  OD1        6.3770   -5.6700   26.3530 O.co2 288  ASP288     -0.2456
    129  OD2        8.2830   -6.5020   25.6560 O.co2 288  ASP288     -0.2456
    130  N         -0.1190   -7.9040   30.7250 N.3   294  ARG294     -0.1245
    131  CA         0.4970   -8.2720   29.4520 C.3   294  ARG294      0.1563
    132  C          0.3800   -9.7800   29.2330 C.2   294  ARG294      0.2260
    133  O         -0.6860  -10.3460   29.4700 O.2   294  ARG294     -0.2867
    134  CB         1.9590   -7.8190   29.4120 C.3   294  ARG294      0.0307
    135  CG         2.1270   -6.3020   29.4600 C.3   294  ARG294      0.0489
    136  CD         1.4550   -5.6060   28.2770 C.3   294  ARG294      0.2205
    137  NE         2.0930   -5.9370   27.0010 N.pl3 294  ARG294     -0.0865
    138  CZ         3.3400   -5.6020   26.6710 C.cat 294  ARG294      0.5346
    139  NH1        4.0960   -4.9170   27.5210 N.pl3 294  ARG294      0.1354
    140  NH2        3.8380   -5.9680   25.4940 N.pl3 294  ARG294      0.1354
    141  N         11.8640    5.7500   35.4670 N.3   369  TRP369     -0.1241
    142  CA        11.9410    5.0020   34.2200 C.3   369  TRP369      0.1605
    143  C         13.3010    4.3650   33.9770 C.2   369  TRP369      0.2264
    144  O         13.3950    3.3170   33.3440 O.2   369  TRP369     -0.2867
    145  CB        11.6140    5.9170   33.0450 C.3   369  TRP369      0.0550
    146  CG        10.1700    5.9080   32.7040 C.ar  369  TRP369      0.0003
    147  CD1        9.1300    6.3210   33.4930 C.ar  369  TRP369      0.0946
    148  CD2        9.5890    5.4090   31.5000 C.ar  369  TRP369      0.0152
    149  NE1        7.9330    6.1000   32.8500 N.ar  369  TRP369     -0.2442
    150  CE2        8.1890    5.5420   31.6240 C.ar  369  TRP369      0.0810
    151  CE3       10.1200    4.8600   30.3250 C.ar  369  TRP369      0.0012
    152  CZ2        7.3080    5.1430   30.6150 C.ar  369  TRP369      0.0191
    153  CZ3        9.2450    4.4640   29.3210 C.ar  369  TRP369      0.0001
    154  CH2        7.8530    4.6070   29.4740 C.ar  369  TRP369      0.0015
    155  N          4.9140   12.7340   23.7920 N.3   397  TYR397     -0.1241
    156  CA         3.8080   11.8250   23.5910 C.3   397  TYR397      0.1605
    157  C          2.7970   12.6360   22.7880 C.2   397  TYR397      0.2264
    158  O          2.8340   13.8660   22.7840 O.2   397  TYR397     -0.2867
    159  CB         3.1840   11.4290   24.9240 C.3   397  TYR397      0.0534
    160  CG         4.0640   10.5800   25.8050 C.ar  397  TYR397     -0.0201
    161  CD1        4.3890   10.9980   27.0950 C.ar  397  TYR397     -0.0009
    162  CD2        4.5260    9.3330   25.3780 C.ar  397  TYR397     -0.0009
    163  CE1        5.1470   10.1970   27.9420 C.ar  397  TYR397      0.0417
    164  CE2        5.2860    8.5200   26.2180 C.ar  397  TYR397      0.0417
    165  CZ         5.5890    8.9600   27.4990 C.ar  397  TYR397      0.1957
    166  OH         6.3210    8.1710   28.3540 O.3   397  TYR397     -0.2866
@<TRIPOS>BOND
     1    71    70    1
     2    55    56    1
     3    56    57    1
     4    56    59    1
     5    70    67    1
     6    24    23    2
     7    23    22    1
     8    66    57   am
     9    66    67    1
    10    57    58    2
    11    33    32    2
    12    59    60    1
    13    30    31    1
    14    69    68    2
    15    67    68    1
    16    51    50    2
    17    68    72   am
    18    32    31    1
    19    22    21    1
    20    22    25    1
    21    50    49    1
    22    15    16    1
    23    75    74    2
    24    31    34    1
    25    60    62   ar
    26    60    61   ar
    27    21    17   am
    28    72    73    1
    29    62    64   ar
    30    44    43    2
    31    34    35    1
    32    43    42    1
    33    25    26    1
    34    48    49    1
    35    41    47    1
    36    41    42    1
    37    17    16    1
    38    17    18    2
    39    73    74    1
    40    16    19    1
    41    74    76   am
    42    88    86   ar
    43    88    89   ar
    44    49    52    1
    45    61    63   ar
    46    35    36    1
    47    86    83   ar
    48    47    46    1
    49    42    45    1
    50    64    65   ar
    51    89    87   ar
    52    26    27    1
    53    52    53    1
    54    52    54    1
    55    36    37    1
    56    76    77    1
    57    20    19    1
    58    63    65   ar
    59    80    77    1
    60    80    81    1
    61    46    45    1
    62    83    81   ar
    63    83    85   ar
    64    77    78    1
    65    28    27    2
    66    27    29   am
    67    81    82   ar
    68    87    85   ar
    69    37    38    2
    70    85    84   ar
    71    98    96   ar
    72    98   100   ar
    73    78    90   am
    74    78    79    2
    75    96    95   ar
    76   101   100    1
    77    90    91    1
    78    82    84   ar
    79    39    38    1
    80   100    99   ar
    81    38    40    1
    82   158   157    2
    83   157   156    1
    84    95    94    1
    85    95    97   ar
    86    94    91    1
    87    91    92    1
    88    99    97   ar
    89   156   155    1
    90   156   159    1
    91    93    92    2
    92   159   160    1
    93   162   160   ar
    94   162   164   ar
    95    14    13    1
    96   140   138    1
    97   129   127   ar
    98   109   108   ar
    99   160   161   ar
   100   110   108   ar
   101   164   165   ar
   102   127   128   ar
   103   127   126    1
   104   108   107    1
   105    13    10    1
   106   138   137    2
   107   138   139    1
   108   126   123    1
   109   137   136    1
   110   161   163   ar
   111   106   107    1
   112   106   103    1
   113   165   163   ar
   114   165   166    1
   115    10    11    1
   116    10     9    1
   117   123   124    1
   118   123   122    1
   119   104   105    2
   120   104   103    1
   121   136   135    1
   122   125   124    2
   123    11    12    2
   124   103   102    1
   125   122   113   am
   126   132   131    1
   127   132   133    2
   128   153   154   ar
   129   153   151   ar
   130   134   131    1
   131   134   135    1
   132   131   130    1
   133   154   152   ar
   134   151   148   ar
   135   113   114    2
   136   113   112    1
   137   152   150   ar
   138   115   112    1
   139   115   116    1
   140   112   111    1
   141   148   150   ar
   142   148   146   ar
   143     4     3    2
   144   150   149   ar
   145   116   117    1
   146     8     7    1
   147     3     2    1
   148   120   119    1
   149   146   145    1
   150   146   147   ar
   151     7     6    1
   152   121   119    1
   153   149   147   ar
   154   119   118    2
   155     5     2    1
   156     5     6    1
   157   145   142    1
   158   118   117    1
   159   144   143    2
   160     2     1    1
   161   143   142    1
   162   142   141    1
