@<TRIPOS>MOLECULE
tmp/1p6mB03.pdb
 142 141 0 0 0
SMALL
GASTEIGER

@<TRIPOS>ATOM
      1  N          6.1280   -2.1550   55.4270 N.3    38  VAL38      -0.1231
      2  CA         5.6520   -1.7440   56.7480 C.3    38  VAL38       0.1692
      3  C          6.2880   -2.5100   57.9030 C.2    38  VAL38       0.2591
      4  O          6.7910   -1.9120   58.8500 O.2    38  VAL38      -0.2718
      5  CB         4.1130   -1.8920   56.8690 C.3    38  VAL38       0.0266
      6  CG1        3.6500   -1.4010   58.2270 C.3    38  VAL38       0.0020
      7  CG2        3.4270   -1.0990   55.7910 C.3    38  VAL38       0.0020
      8  N          6.2500   -3.8330   57.8280 N.am   39  LEU39      -0.1980
      9  CA         6.8180   -4.6750   58.8740 C.3    39  LEU39       0.1596
     10  C          8.1390   -5.3250   58.4850 C.2    39  LEU39       0.2287
     11  O          8.4100   -5.5840   57.3080 O.2    39  LEU39      -0.2864
     12  CB         5.8390   -5.7890   59.2440 C.3    39  LEU39       0.0297
     13  CG         4.6740   -5.5350   60.1980 C.3    39  LEU39       0.0022
     14  CD1        4.0420   -4.1910   59.9420 C.3    39  LEU39       0.0001
     15  CD2        3.6620   -6.6550   60.0170 C.3    39  LEU39       0.0001
     16  N         -4.5500   -2.5070   70.1280 N.3   168  SER168     -0.1202
     17  CA        -3.5600   -1.8250   69.3170 C.3   168  SER168      0.2020
     18  C         -3.3430   -0.4260   69.8860 C.2   168  SER168      0.2618
     19  O         -2.2210    0.0900   69.9280 O.2   168  SER168     -0.2717
     20  CB        -4.0800   -1.7460   67.8920 C.3   168  SER168      0.2103
     21  OG        -3.0440   -1.4010   67.0030 O.3   168  SER168     -0.2182
     22  N         -4.4420    0.1830   70.3190 N.am  169  GLN169     -0.1979
     23  CA        -4.4320    1.5140   70.9170 C.3   169  GLN169      0.1601
     24  C         -5.3230    1.4180   72.1510 C.2   169  GLN169      0.2287
     25  O         -6.1900    0.5490   72.2150 O.2   169  GLN169     -0.2864
     26  CB        -4.9900    2.5420   69.9330 C.3   169  GLN169      0.0394
     27  CG        -4.1250    2.7530   68.6970 C.3   169  GLN169      0.0908
     28  CD        -4.6720    3.8290   67.7630 C.2   169  GLN169      0.2608
     29  OE1       -5.0020    4.9410   68.1900 O.2   169  GLN169     -0.2717
     30  NE2       -4.7550    3.5040   66.4780 N.am  169  GLN169     -0.0878
     31  N         -4.6060    9.4490   70.8220 N.3   256  PRO256     -0.2116
     32  CA        -3.9570    8.4010   70.0380 C.3   256  PRO256      0.1372
     33  C         -2.9120    7.8150   70.9710 C.2   256  PRO256      0.2244
     34  O         -1.9150    8.4630   71.2590 O.2   256  PRO256     -0.2868
     35  CB        -3.3360    9.1800   68.8870 C.3   256  PRO256      0.0268
     36  CG        -2.8770   10.4090   69.5640 C.3   256  PRO256      0.0207
     37  CD        -4.0460   10.7700   70.4890 C.3   256  PRO256      0.0892
     38  N         -0.6980    4.4140   71.3590 N.3   258  VAL258     -0.1245
     39  CA        -0.2350    3.1330   70.8640 C.3   258  VAL258      0.1561
     40  C          0.0120    2.2570   72.0670 C.2   258  VAL258      0.2260
     41  O          0.5360    2.7260   73.0710 O.2   258  VAL258     -0.2867
     42  CB         1.0590    3.3080   70.0710 C.3   258  VAL258      0.0252
     43  CG1        1.5330    1.9870   69.5550 C.3   258  VAL258      0.0019
     44  CG2        0.8230    4.2520   68.9160 C.3   258  VAL258      0.0019
     45  N          0.6680   -1.5140   71.5260 N.3   260  ASN260     -0.1225
     46  CA         1.1650   -2.8210   71.1020 C.3   260  ASN260      0.1785
     47  C          2.6400   -2.8230   70.6920 C.2   260  ASN260      0.2597
     48  O          3.1610   -3.8400   70.2410 O.2   260  ASN260     -0.2718
     49  CB         0.3280   -3.3560   69.9370 C.3   260  ASN260      0.1169
     50  CG         0.4970   -2.5390   68.6670 C.2   260  ASN260      0.2627
     51  OD1        0.0590   -2.9510   67.5870 O.2   260  ASN260     -0.2716
     52  ND2        1.1310   -1.3740   68.7850 N.am  260  ASN260     -0.0877
     53  N          3.3110   -1.6890   70.8340 N.am  261  MET261     -0.1979
     54  CA         4.7160   -1.6240   70.4620 C.3   261  MET261      0.1605
     55  C          5.5980   -1.9120   71.6460 C.2   261  MET261      0.2287
     56  O          5.2190   -1.6780   72.7870 O.2   261  MET261     -0.2864
     57  CB         5.0590   -0.2630   69.8740 C.3   261  MET261      0.0413
     58  CG         4.5240   -0.0860   68.4720 C.3   261  MET261      0.0598
     59  SD         5.2700    1.3160   67.6920 S.3   261  MET261     -0.1393
     60  CE         6.9140    0.6720   67.4580 C.3   261  MET261      0.0692
     61  N          1.9670    4.7070   74.8530 N.3   275  PHE275     -0.1227
     62  CA         2.3500    6.1110   74.7740 C.3   275  PHE275      0.1736
     63  C          1.3500    6.8970   73.9500 C.2   275  PHE275      0.2596
     64  O          0.7170    6.3570   73.0410 O.2   275  PHE275     -0.2718
     65  CB         3.7460    6.2460   74.1600 C.3   275  PHE275      0.0547
     66  CG         3.8610    5.6760   72.7730 C.ar  275  PHE275     -0.0202
     67  CD1        3.4020    6.3820   71.6760 C.ar  275  PHE275     -0.0042
     68  CD2        4.4490    4.4360   72.5670 C.ar  275  PHE275     -0.0042
     69  CE1        3.5290    5.8640   70.3860 C.ar  275  PHE275     -0.0003
     70  CE2        4.5820    3.9070   71.2750 C.ar  275  PHE275     -0.0003
     71  CZ         4.1230    4.6240   70.1890 C.ar  275  PHE275     -0.0000
     72  N          1.2150    8.1770   74.2720 N.am  276  SER276     -0.1938
     73  CA         0.2850    9.0320   73.5530 C.3   276  SER276      0.2055
     74  C          0.7090   10.4910   73.5590 C.2   276  SER276      0.2644
     75  O          1.2840   10.9960   74.5270 O.2   276  SER276     -0.2714
     76  CB        -1.1270    8.9160   74.1520 C.3   276  SER276      0.2130
     77  OG        -1.1590    9.3250   75.5130 O.3   276  SER276     -0.2179
     78  N          0.4250   11.1550   72.4470 N.am  277  GLY277     -0.1939
     79  CA         0.7200   12.5610   72.3080 C.3   277  GLY277      0.2014
     80  C         -0.5910   13.1340   71.8270 C.2   277  GLY277      0.2639
     81  O         -1.5480   13.2610   72.5980 O.2   277  GLY277     -0.2714
     82  N         -0.6470   13.4690   70.5460 N.am  278  TRP278     -0.1959
     83  CA        -1.8720   13.9860   69.9770 C.3   278  TRP278      0.1771
     84  C         -1.9160   13.7010   68.4870 C.2   278  TRP278      0.2619
     85  O         -0.8860   13.4460   67.8560 O.2   278  TRP278     -0.2715
     86  CB        -2.0450   15.4830   70.2980 C.3   278  TRP278      0.0590
     87  CG        -0.9010   16.3900   69.9440 C.ar  278  TRP278      0.0006
     88  CD1       -0.5810   16.8560   68.7070 C.ar  278  TRP278      0.0946
     89  CD2        0.0330   16.9810   70.8500 C.ar  278  TRP278      0.0152
     90  NE1        0.4910   17.7070   68.7840 N.ar  278  TRP278     -0.2442
     91  CE2        0.8900   17.8010   70.0890 C.ar  278  TRP278      0.0810
     92  CE3        0.2290   16.8980   72.2340 C.ar  278  TRP278      0.0012
     93  CZ2        1.9320   18.5360   70.6630 C.ar  278  TRP278      0.0191
     94  CZ3        1.2670   17.6270   72.8090 C.ar  278  TRP278      0.0001
     95  CH2        2.1050   18.4350   72.0210 C.ar  278  TRP278      0.0015
     96  N         -3.1250   13.7210   67.9440 N.am  279  TYR279     -0.1974
     97  CA        -3.3650   13.4150   66.5480 C.3   279  TYR279      0.1639
     98  C         -2.9450   14.4630   65.5350 C.2   279  TYR279      0.2290
     99  O         -2.9280   15.6610   65.8200 O.2   279  TYR279     -0.2864
    100  CB        -4.8570   13.1480   66.3460 C.3   279  TYR279      0.0560
    101  CG        -5.2610   11.7020   66.3600 C.ar  279  TYR279     -0.0198
    102  CD1       -4.9080   10.8590   65.3170 C.ar  279  TYR279     -0.0009
    103  CD2       -6.0120   11.1810   67.4060 C.ar  279  TYR279     -0.0009
    104  CE1       -5.2900    9.5250   65.3060 C.ar  279  TYR279      0.0417
    105  CE2       -6.4090    9.8450   67.4190 C.ar  279  TYR279      0.0417
    106  CZ        -6.0430    9.0300   66.3650 C.ar  279  TYR279      0.1957
    107  OH        -6.4230    7.7060   66.3600 O.3   279  TYR279     -0.2866
    108  N         -4.3500   11.7290   60.0620 N.3   283  GLU283     -0.1245
    109  CA        -4.4590   10.3600   60.5480 C.3   283  GLU283      0.1567
    110  C         -5.9330   10.0000   60.6010 C.2   283  GLU283      0.2260
    111  O         -6.3370    8.9290   60.1730 O.2   283  GLU283     -0.2867
    112  CB        -3.8500   10.2310   61.9410 C.3   283  GLU283      0.0388
    113  CG        -2.3360   10.3520   61.9740 C.3   283  GLU283      0.1160
    114  CD        -1.7810   10.1900   63.3800 C.2   283  GLU283      0.3649
    115  OE1       -1.4340   11.2100   64.0200 O.co2 283  GLU283     -0.2457
    116  OE2       -1.7050    9.0360   63.8510 O.co2 283  GLU283     -0.2457
    117  N          6.6870    7.5990   55.4790 N.3   369  TRP369     -0.1241
    118  CA         5.8030    7.8100   56.6330 C.3   369  TRP369      0.1605
    119  C          5.7740    9.2470   57.1490 C.2   369  TRP369      0.2264
    120  O          4.8740    9.6230   57.8900 O.2   369  TRP369     -0.2867
    121  CB         6.2070    6.9040   57.7950 C.3   369  TRP369      0.0550
    122  CG         5.6890    5.5040   57.7240 C.ar  369  TRP369      0.0003
    123  CD1        5.8810    4.6060   56.7180 C.ar  369  TRP369      0.0946
    124  CD2        4.8900    4.8400   58.7100 C.ar  369  TRP369      0.0152
    125  NE1        5.2460    3.4210   57.0150 N.ar  369  TRP369     -0.2442
    126  CE2        4.6310    3.5400   58.2320 C.ar  369  TRP369      0.0810
    127  CE3        4.3690    5.2210   59.9530 C.ar  369  TRP369      0.0012
    128  CZ2        3.8740    2.6170   58.9470 C.ar  369  TRP369      0.0191
    129  CZ3        3.6100    4.2950   60.6710 C.ar  369  TRP369      0.0001
    130  CH2        3.3710    3.0080   60.1600 C.ar  369  TRP369      0.0015
    131  N          8.1880   -3.1840   66.7950 N.3   397  TYR397     -0.1241
    132  CA         6.9460   -3.9210   66.6250 C.3   397  TYR397      0.1605
    133  C          7.2140   -5.2830   67.2450 C.2   397  TYR397      0.2264
    134  O          8.3530   -5.7580   67.2380 O.2   397  TYR397     -0.2867
    135  CB         6.6410   -4.1420   65.1490 C.3   397  TYR397      0.0534
    136  CG         6.2940   -2.9150   64.3620 C.ar  397  TYR397     -0.0201
    137  CD1        5.1770   -2.1510   64.6800 C.ar  397  TYR397     -0.0009
    138  CD2        7.0500   -2.5510   63.2590 C.ar  397  TYR397     -0.0009
    139  CE1        4.8130   -1.0500   63.9070 C.ar  397  TYR397      0.0417
    140  CE2        6.7070   -1.4530   62.4740 C.ar  397  TYR397      0.0417
    141  CZ         5.5880   -0.7150   62.8070 C.ar  397  TYR397      0.1957
    142  OH         5.2430    0.3580   62.0180 O.3   397  TYR397     -0.2866
@<TRIPOS>BOND
     1     1     2    1
     2   117   118    1
     3     7     5    1
     4   118   119    1
     5   118   121    1
     6   123   125   ar
     7   123   122   ar
     8     2     5    1
     9     2     3    1
    10     5     6    1
    11   125   126   ar
    12   119   120    2
    13    11    10    2
    14   122   121    1
    15   122   124   ar
    16     8     3   am
    17     8     9    1
    18     3     4    2
    19   126   124   ar
    20   126   128   ar
    21    10     9    1
    22   124   127   ar
    23     9    12    1
    24   128   130   ar
    25    12    13    1
    26    14    13    1
    27   127   129   ar
    28    15    13    1
    29   108   109    1
    30   130   129   ar
    31   111   110    2
    32   109   110    1
    33   109   112    1
    34   112   113    1
    35   113   114    1
    36   142   141    1
    37   140   141   ar
    38   140   138   ar
    39   141   139   ar
    40   138   136   ar
    41   114   116   ar
    42   114   115   ar
    43   139   137   ar
    44   136   137   ar
    45   136   135    1
    46   135   132    1
    47   104   102   ar
    48   104   106   ar
    49   102   101   ar
    50    98    99    2
    51    98    97    1
    52   100   101    1
    53   100    97    1
    54   101   103   ar
    55   107   106    1
    56   106   105   ar
    57    30    28   am
    58    97    96    1
    59   132   131    1
    60   132   133    1
    61    21    20    1
    62   134   133    2
    63   103   105   ar
    64    60    59    1
    65    51    50    2
    66    59    58    1
    67    28    29    2
    68    28    27    1
    69    85    84    2
    70    20    17    1
    71    96    84   am
    72    58    57    1
    73    84    83    1
    74    50    52   am
    75    50    49    1
    76    27    26    1
    77    88    90   ar
    78    88    87   ar
    79    90    91   ar
    80    35    36    1
    81    35    32    1
    82    44    42    1
    83    17    18    1
    84    17    16    1
    85    43    42    1
    86    36    37    1
    87    57    54    1
    88    18    19    2
    89    18    22   am
    90    26    23    1
    91    49    46    1
    92    87    86    1
    93    87    89   ar
    94    83    86    1
    95    83    82    1
    96    32    31    1
    97    32    33    1
    98    42    39    1
    99    91    93   ar
   100    91    89   ar
   101    71    69   ar
   102    71    70   ar
   103    48    47    2
   104    22    23    1
   105    69    67   ar
   106    54    53    1
   107    54    55    1
   108    37    31    1
   109    82    80   am
   110    93    95   ar
   111    47    53   am
   112    47    46    1
   113    89    92   ar
   114    39    38    1
   115    39    40    1
   116    23    24    1
   117    33    34    2
   118    46    45    1
   119    70    68   ar
   120    55    56    2
   121    67    66   ar
   122    80    79    1
   123    80    81    2
   124    95    94   ar
   125    40    41    2
   126    24    25    2
   127    92    94   ar
   128    79    78    1
   129    78    74   am
   130    68    66   ar
   131    66    65    1
   132    64    63    2
   133    73    74    1
   134    73    76    1
   135    73    72    1
   136    74    75    2
   137    63    72   am
   138    63    62    1
   139    76    77    1
   140    65    62    1
   141    62    61    1
