@<TRIPOS>MOLECULE
tmp/1p6oB00.pdb
 106 101 0 0 0
SMALL
GASTEIGER

@<TRIPOS>ATOM
      1  N         11.8330   47.2240   41.9560 N.3    36  ILE36      -0.1245
      2  CA        12.1590   46.3200   40.8650 C.3    36  ILE36       0.1561
      3  C         11.5170   46.8810   39.6140 C.2    36  ILE36       0.2260
      4  O         10.3170   47.1250   39.5780 O.2    36  ILE36      -0.2867
      5  CB        11.6990   44.8770   41.1420 C.3    36  ILE36       0.0252
      6  CG1       12.3450   44.3370   42.4200 C.3    36  ILE36       0.0019
      7  CG2       11.9940   44.0080   39.9320 C.3    36  ILE36       0.0019
      8  CD1       11.7540   43.0470   42.9220 C.3    36  ILE36       0.0001
      9  N          7.3920   47.1010   39.8250 N.3    54  ASN54      -0.1240
     10  CA         6.5180   46.3050   40.6660 C.3    54  ASN54       0.1653
     11  C          5.4090   47.1870   41.2130 C.2    54  ASN54       0.2266
     12  O          5.6970   48.2870   41.6890 O.2    54  ASN54      -0.2867
     13  CB         7.3740   45.6630   41.7510 C.3    54  ASN54       0.1155
     14  CG         6.6020   44.8130   42.7180 C.2    54  ASN54       0.2627
     15  OD1        5.6950   45.2980   43.4020 O.2    54  ASN54      -0.2716
     16  ND2        6.9480   43.5350   42.8100 N.am   54  ASN54      -0.0877
     17  N          4.5030   42.0490   39.3960 N.3    65  HIS65      -0.1226
     18  CA         5.9520   42.1850   39.5350 C.3    65  HIS65       0.1752
     19  C          6.4650   43.1250   38.4730 C.2    65  HIS65       0.2597
     20  O          5.7930   43.4870   37.5210 O.2    65  HIS65      -0.2718
     21  CB         6.6050   40.8050   39.4000 C.3    65  HIS65       0.0759
     22  CG         6.6230   39.9970   40.6540 C.ar   65  HIS65       0.0818
     23  ND1        7.4110   38.8470   40.7660 N.ar   65  HIS65      -0.2268
     24  CD2        6.0340   40.2210   41.8630 C.ar   65  HIS65       0.1154
     25  CE1        7.2360   38.4020   42.0070 C.ar   65  HIS65       0.1986
     26  NE2        6.4340   39.2000   42.7040 N.ar   65  HIS65      -0.2212
     27  N          7.7210   43.5720   38.6310 N.am   66  GLY66      -0.1942
     28  CA         8.2670   44.4830   37.6500 C.3    66  GLY66       0.2014
     29  C          8.1860   44.0050   36.2210 C.2    66  GLY66       0.2638
     30  O          7.8170   44.7180   35.2970 O.2    66  GLY66      -0.2714
     31  N          8.4860   42.7110   36.0380 N.am   67  GLU67      -0.1977
     32  CA         8.5460   42.1550   34.6920 C.3    67  GLU67       0.1602
     33  C          7.1440   42.0370   34.1120 C.2    67  GLU67       0.2287
     34  O          6.9170   42.2970   32.9180 O.2    67  GLU67      -0.2864
     35  CB         9.2030   40.7660   34.7300 C.3    67  GLU67       0.0415
     36  CG        10.6310   40.7390   35.2700 C.3    67  GLU67       0.1163
     37  CD        10.7240   40.5070   36.7700 C.2    67  GLU67       0.3649
     38  OE1       11.2110   39.4290   37.1510 O.co2  67  GLU67      -0.2457
     39  OE2       10.3140   41.3960   37.5580 O.co2  67  GLU67      -0.2457
     40  N         16.1050   42.8180   38.8400 N.3    91  LEU91      -0.1231
     41  CA        16.2950   41.6740   39.7060 C.3    91  LEU91       0.1693
     42  C         16.0630   40.3970   38.9240 C.2    91  LEU91       0.2592
     43  O         15.1510   40.3010   38.0850 O.2    91  LEU91      -0.2718
     44  CB        15.3530   41.7470   40.9060 C.3    91  LEU91       0.0284
     45  CG        15.6300   40.7360   42.0150 C.3    91  LEU91       0.0019
     46  CD1       16.9860   40.9830   42.6370 C.3    91  LEU91       0.0001
     47  CD2       14.5220   40.8140   43.0740 C.3    91  LEU91       0.0001
     48  N         16.8270   39.3860   39.2270 N.am   92  SER92      -0.1952
     49  CA        16.6860   38.0740   38.6150 C.3    92  SER92       0.1924
     50  C         15.2520   37.5890   38.7590 C.2    92  SER92       0.2314
     51  O         14.6560   37.7320   39.8190 O.2    92  SER92      -0.2863
     52  CB        17.6660   37.1000   39.2390 C.3    92  SER92       0.2116
     53  OG        17.7510   35.9120   38.4620 O.3    92  SER92      -0.2180
     54  N         11.7170   35.8190   39.2680 N.3    94  CYS94      -0.1235
     55  CA        11.0730   34.7170   39.9730 C.3    94  CYS94       0.1677
     56  C         10.4900   33.7380   38.9700 C.2    94  CYS94       0.2270
     57  O         10.5570   33.9240   37.7540 O.2    94  CYS94      -0.2867
     58  CB         9.9740   35.2560   40.8950 C.3    94  CYS94       0.0956
     59  SG         8.4790   35.7670   40.0150 S.3    94  CYS94      -0.0801
     60  N          7.7330   35.3820   36.6080 N.3    97  CYS97      -0.1235
     61  CA         8.2230   36.2880   35.5610 C.3    97  CYS97       0.1677
     62  C          9.0140   35.5220   34.5420 C.2    97  CYS97       0.2270
     63  O          8.9720   35.8270   33.3560 O.2    97  CYS97      -0.2867
     64  CB         8.9960   37.4180   36.2370 C.3    97  CYS97       0.0956
     65  SG         7.9090   38.4570   37.2540 S.3    97  CYS97      -0.0801
     66  N         18.3360   38.0560   45.3350 N.3   117  PHE117     -0.1241
     67  CA        17.3160   37.0960   44.9960 C.3   117  PHE117      0.1605
     68  C         17.7300   36.3600   43.7410 C.2   117  PHE117      0.2264
     69  O         18.2140   36.9890   42.7980 O.2   117  PHE117     -0.2867
     70  CB        15.9880   37.8000   44.7780 C.3   117  PHE117      0.0534
     71  CG        14.8940   36.8780   44.3350 C.ar  117  PHE117     -0.0203
     72  CD1       14.5110   36.8280   43.0000 C.ar  117  PHE117     -0.0042
     73  CD2       14.2140   36.0560   45.2070 C.ar  117  PHE117     -0.0042
     74  CE1       13.5220   35.9890   42.5530 C.ar  117  PHE117     -0.0003
     75  CE2       13.2160   35.2050   44.7880 C.ar  117  PHE117     -0.0003
     76  CZ        12.8390   35.1660   43.4590 C.ar  117  PHE117     -0.0000
     77  N          8.8600   42.2240   51.4480 N.3   155  TRP155     -0.1241
     78  CA         9.6270   41.4800   50.4620 C.3   155  TRP155      0.1605
     79  C          9.2030   40.0290   50.4260 C.2   155  TRP155      0.2264
     80  O          8.9580   39.4740   49.3650 O.2   155  TRP155     -0.2867
     81  CB        11.1170   41.5910   50.7810 C.3   155  TRP155      0.0550
     82  CG        11.9430   40.6320   49.9790 C.ar  155  TRP155      0.0003
     83  CD1       12.7620   39.6920   50.4960 C.ar  155  TRP155      0.0946
     84  CD2       12.0010   40.5610   48.5540 C.ar  155  TRP155      0.0152
     85  NE1       13.3400   39.0230   49.4670 N.ar  155  TRP155     -0.2442
     86  CE2       12.9070   39.5130   48.2710 C.ar  155  TRP155      0.0810
     87  CE3       11.3860   41.2610   47.5160 C.ar  155  TRP155      0.0012
     88  CZ2       13.2230   39.1400   46.9740 C.ar  155  TRP155      0.0191
     89  CZ3       11.7090   40.8780   46.2250 C.ar  155  TRP155      0.0001
     90  CH2       12.6040   39.8490   45.9830 C.ar  155  TRP155      0.0015
     91  N          6.1750   39.5630   48.4840 N.3   158  ASP158     -0.1225
     92  CA         6.3780   39.6890   47.0380 C.3   158  ASP158      0.1805
     93  C          6.9330   38.4340   46.4010 C.2   158  ASP158      0.2597
     94  O          6.7340   38.2640   45.1820 O.2   158  ASP158     -0.2718
     95  CB         7.2560   40.9070   46.7780 C.3   158  ASP158      0.1424
     96  CG         7.2240   41.3750   45.3340 C.2   158  ASP158      0.3668
     97  OD1        6.1200   41.6190   44.8170 O.co2 158  ASP158     -0.2456
     98  OD2        8.3210   41.4720   44.7360 O.co2 158  ASP158     -0.2456
     99  N          7.5910   37.5750   47.1570 N.am  159  ILE159     -0.1980
    100  CA         8.0860   36.3080   46.6180 C.3   159  ILE159      0.1595
    101  C          7.3410   35.1390   47.2320 C.2   159  ILE159      0.2287
    102  O          7.8030   34.0090   47.1400 O.2   159  ILE159     -0.2864
    103  CB         9.6010   36.1740   46.7350 C.3   159  ILE159      0.0276
    104  CG1       10.0860   36.2790   48.1830 C.3   159  ILE159      0.0022
    105  CG2       10.2730   37.1860   45.8010 C.3   159  ILE159      0.0022
    106  CD1       11.5390   35.8730   48.3590 C.3   159  ILE159      0.0001
@<TRIPOS>BOND
     1    34    33    2
     2    63    62    2
     3    33    32    1
     4    62    61    1
     5    32    35    1
     6    32    31    1
     7    35    36    1
     8    36    37    1
     9    30    29    2
    10    61    64    1
    11    61    60    1
    12    31    29   am
    13    29    28    1
    14    64    65    1
    15    37    38   ar
    16    37    39   ar
    17    20    19    2
    18    28    27    1
    19    57    56    2
    20    43    42    2
    21    53    52    1
    22    19    27   am
    23    19    18    1
    24    49    50    1
    25    49    48    1
    26    49    52    1
    27    50    51    2
    28    40    41    1
    29    42    48   am
    30    42    41    1
    31    56    55    1
    32    54    55    1
    33    17    18    1
    34    21    18    1
    35    21    22    1
    36     4     3    2
    37     3     2    1
    38    41    44    1
    39     9    10    1
    40     7     5    1
    41    55    58    1
    42    59    58    1
    43    22    23   ar
    44    22    24   ar
    45    10    11    1
    46    10    13    1
    47    23    25   ar
    48     2     5    1
    49     2     1    1
    50    44    45    1
    51     5     6    1
    52    11    12    2
    53    13    14    1
    54    24    26   ar
    55    25    26   ar
    56    45    46    1
    57    45    47    1
    58     6     8    1
    59    74    72   ar
    60    74    76   ar
    61    14    16   am
    62    14    15    2
    63    69    68    2
    64    72    71   ar
    65    76    75   ar
    66    68    67    1
    67    71    70    1
    68    71    73   ar
    69    98    96   ar
    70    70    67    1
    71    75    73   ar
    72    97    96   ar
    73    67    66    1
    74    94    93    2
    75    96    95    1
    76   105   103    1
    77    90    89   ar
    78    90    88   ar
    79    89    87   ar
    80    93    92    1
    81    93    99   am
    82   100   103    1
    83   100    99    1
    84   100   101    1
    85   103   104    1
    86    95    92    1
    87    88    86   ar
    88    92    91    1
    89   102   101    2
    90    87    84   ar
    91   104   106    1
    92    86    84   ar
    93    86    85   ar
    94    84    82   ar
    95    80    79    2
    96    85    83   ar
    97    82    83   ar
    98    82    81    1
    99    79    78    1
   100    78    81    1
   101    78    77    1
