@<TRIPOS>MOLECULE
tmp/1p6wA01.pdb
 96 95 0 0 0
SMALL
GASTEIGER

@<TRIPOS>ATOM
      1  N         44.3810   15.8560   -5.5650 N.3   375  LYS375     -0.1245
      2  CA        45.6930   15.4560   -5.1050 C.3   375  LYS375      0.1561
      3  C         46.2060   16.4850   -4.1250 C.2   375  LYS375      0.2260
      4  O         45.9490   17.6770   -4.2700 O.2   375  LYS375     -0.2867
      5  CB        46.6590   15.3300   -6.3000 C.3   375  LYS375      0.0271
      6  CG        48.1500   15.1380   -5.9450 C.3   375  LYS375      0.0035
      7  CD        48.8420   16.4670   -5.6590 C.3   375  LYS375      0.0206
      8  CE        50.3470   16.2850   -5.4650 C.3   375  LYS375      0.1093
      9  NZ        51.0740   17.5810   -5.3270 N.3   375  LYS375     -0.1314
     10  N         55.4000   16.7910   -6.6500 N.3   380  TYR380     -0.1227
     11  CA        54.8060   17.5030   -7.7650 C.3   380  TYR380      0.1736
     12  C         54.1640   16.6260   -8.8270 C.2   380  TYR380      0.2595
     13  O         53.0060   16.8380   -9.2020 O.2   380  TYR380     -0.2718
     14  CB        55.8480   18.4100   -8.4140 C.3   380  TYR380      0.0548
     15  CG        55.3150   19.1740   -9.5960 C.ar  380  TYR380     -0.0200
     16  CD1       55.3760   18.6050  -10.9240 C.ar  380  TYR380     -0.0009
     17  CD2       54.7060   20.4310   -9.4080 C.ar  380  TYR380     -0.0009
     18  CE1       54.8380   19.2940  -11.9820 C.ar  380  TYR380      0.0417
     19  CE2       54.1610   21.1220  -10.4860 C.ar  380  TYR380      0.0417
     20  CZ        54.2090   20.5950  -11.7460 C.ar  380  TYR380      0.1957
     21  OH        53.6510   21.2870  -12.7870 O.3   380  TYR380     -0.2866
     22  N         54.9010   15.6350   -9.3130 N.am  381  ASP381     -0.1960
     23  CA        54.3730   14.7760  -10.3690 C.3   381  ASP381      0.1840
     24  C         53.6090   13.5200   -9.9270 C.2   381  ASP381      0.2621
     25  O         54.1680   12.6270   -9.2890 O.2   381  ASP381     -0.2715
     26  CB        55.5130   14.3670  -11.3130 C.3   381  ASP381      0.1450
     27  CG        55.0090   13.7890  -12.6330 C.2   381  ASP381      0.3671
     28  OD1       53.7880   13.8830  -12.9070 O.co2 381  ASP381     -0.2456
     29  OD2       55.8380   13.2470  -13.4020 O.co2 381  ASP381     -0.2456
     30  N         52.3260   13.4680  -10.2790 N.am  382  VAL382     -0.1977
     31  CA        51.4610   12.3220   -9.9900 C.3   382  VAL382      0.1596
     32  C         50.6770   12.0350  -11.2700 C.2   382  VAL382      0.2287
     33  O         49.6970   11.2890  -11.2670 O.2   382  VAL382     -0.2864
     34  CB        50.4320   12.6050   -8.8640 C.3   382  VAL382      0.0276
     35  CG1       51.1400   12.8960   -7.5680 C.3   382  VAL382      0.0022
     36  CG2       49.5140   13.7490   -9.2720 C.3   382  VAL382      0.0022
     37  N         43.2710   19.4820  -15.4070 N.3   392  THR392     -0.1218
     38  CA        43.3130   20.3080  -14.2030 C.3   392  THR392      0.1862
     39  C         42.2460   21.3900  -14.2450 C.2   392  THR392      0.2287
     40  O         42.0360   22.0330  -15.2680 O.2   392  THR392     -0.2866
     41  CB        44.7050   20.9570  -13.9830 C.3   392  THR392      0.1770
     42  OG1       45.2950   21.2800  -15.2460 O.3   392  THR392     -0.2211
     43  CG2       45.6190   20.0100  -13.2300 C.3   392  THR392      0.0375
     44  N         44.1300   24.5890   -8.8230 N.3   395  HIS395     -0.1226
     45  CA        45.3790   24.2050   -8.1960 C.3   395  HIS395      0.1752
     46  C         45.8970   25.2760   -7.2570 C.2   395  HIS395      0.2596
     47  O         45.4740   26.4360   -7.3150 O.2   395  HIS395     -0.2718
     48  CB        46.4360   23.8750   -9.2620 C.3   395  HIS395      0.0759
     49  CG        46.8120   25.0360  -10.1330 C.ar  395  HIS395      0.0818
     50  ND1       47.6860   24.9150  -11.1910 N.ar  395  HIS395     -0.2268
     51  CD2       46.4430   26.3390  -10.1000 C.ar  395  HIS395      0.1154
     52  CE1       47.8400   26.0910  -11.7730 C.ar  395  HIS395      0.1986
     53  NE2       47.0960   26.9740  -11.1300 N.ar  395  HIS395     -0.2212
     54  N         46.8170   24.8680   -6.3880 N.am  396  GLY396     -0.1957
     55  CA        47.4070   25.7800   -5.4280 C.3   396  GLY396      0.1869
     56  C         48.5870   25.1080   -4.7490 C.2   396  GLY396      0.2309
     57  O         49.1220   24.1190   -5.2630 O.2   396  GLY396     -0.2863
     58  N         50.6160   22.7490   -3.0660 N.3   398  ASP398     -0.1225
     59  CA        50.5730   21.3160   -2.7950 C.3   398  ASP398      0.1805
     60  C         49.2080   20.6470   -2.9710 C.2   398  ASP398      0.2598
     61  O         48.8760   19.7020   -2.2640 O.2   398  ASP398     -0.2718
     62  CB        51.1440   21.0090   -1.4030 C.3   398  ASP398      0.1424
     63  CG        52.6490   21.2990   -1.3020 C.2   398  ASP398      0.3668
     64  OD1       53.3280   21.3790   -2.3480 O.co2 398  ASP398     -0.2456
     65  OD2       53.1620   21.4380   -0.1690 O.co2 398  ASP398     -0.2456
     66  N         48.4180   21.1410   -3.9210 N.am  399  TYR399     -0.1962
     67  CA        47.1260   20.5300   -4.2120 C.3   399  TYR399      0.1771
     68  C         46.7140   20.8720   -5.6390 C.2   399  TYR399      0.2619
     69  O         47.1490   21.8850   -6.2090 O.2   399  TYR399     -0.2715
     70  CB        46.0510   20.9900   -3.2110 C.3   399  TYR399      0.0574
     71  CG        45.3690   22.3050   -3.5390 C.ar  399  TYR399     -0.0198
     72  CD1       44.3000   22.3690   -4.5640 C.ar  399  TYR399     -0.0009
     73  CD2       45.7440   23.5110   -2.8420 C.ar  399  TYR399     -0.0009
     74  CE1       43.6730   23.5850   -4.8370 C.ar  399  TYR399      0.0417
     75  CE2       45.1170   24.7150   -3.1180 C.ar  399  TYR399      0.0417
     76  CZ        44.0740   24.7870   -4.1100 C.ar  399  TYR399      0.1957
     77  OH        43.4600   25.9970   -4.3550 O.3   399  TYR399     -0.2866
     78  N         45.8950   20.0040   -6.2200 N.am  400  ALA400     -0.1977
     79  CA        45.3940   20.1900   -7.5770 C.3   400  ALA400      0.1597
     80  C         44.1250   19.3650   -7.7370 C.2   400  ALA400      0.2287
     81  O         43.9730   18.3200   -7.1060 O.2   400  ALA400     -0.2864
     82  CB        46.4420   19.7420   -8.5980 C.3   400  ALA400      0.0319
     83  N         41.3450   17.8390  -10.7700 N.3   402  TRP402     -0.1241
     84  CA        41.0510   17.5890  -12.1810 C.3   402  TRP402      0.1605
     85  C         39.5650   17.2840  -12.3570 C.2   402  TRP402      0.2264
     86  O         38.9210   16.7400  -11.4570 O.2   402  TRP402     -0.2867
     87  CB        41.8160   16.3660  -12.7020 C.3   402  TRP402      0.0550
     88  CG        43.2980   16.4950  -12.7880 C.ar  402  TRP402      0.0003
     89  CD1       44.0420   16.6630  -13.9270 C.ar  402  TRP402      0.0946
     90  CD2       44.2360   16.4040  -11.7040 C.ar  402  TRP402      0.0152
     91  NE1       45.3880   16.6750  -13.6170 N.ar  402  TRP402     -0.2442
     92  CE2       45.5340   16.5200  -12.2620 C.ar  402  TRP402      0.0810
     93  CE3       44.1090   16.2340  -10.3170 C.ar  402  TRP402      0.0012
     94  CZ2       46.6950   16.4700  -11.4790 C.ar  402  TRP402      0.0191
     95  CZ3       45.2700   16.1840   -9.5380 C.ar  402  TRP402      0.0001
     96  CH2       46.5420   16.3020  -10.1240 C.ar  402  TRP402      0.0015
@<TRIPOS>BOND
     1    37    38    1
     2    40    39    2
     3    42    41    1
     4    39    38    1
     5    38    41    1
     6    41    43    1
     7    89    91   ar
     8    89    88   ar
     9    91    92   ar
    10    29    27   ar
    11    28    27   ar
    12    88    87    1
    13    88    90   ar
    14    21    20    1
    15    87    84    1
    16    27    26    1
    17    85    84    1
    18    85    86    2
    19    92    90   ar
    20    92    94   ar
    21    84    83    1
    22    18    20   ar
    23    18    16   ar
    24    52    50   ar
    25    52    53   ar
    26    20    19   ar
    27    90    93   ar
    28    94    96   ar
    29    26    23    1
    30    32    33    2
    31    32    31    1
    32    50    49   ar
    33    53    51   ar
    34    16    15   ar
    35    19    17   ar
    36    23    24    1
    37    23    22    1
    38    93    95   ar
    39    30    31    1
    40    30    24   am
    41    49    51   ar
    42    49    48    1
    43    96    95   ar
    44    31    34    1
    45    24    25    2
    46    15    17   ar
    47    15    14    1
    48    22    12   am
    49    36    34    1
    50    48    45    1
    51    13    12    2
    52    34    35    1
    53    12    11    1
    54    44    45    1
    55    82    79    1
    56    14    11    1
    57    45    46    1
    58    11    10    1
    59    80    79    1
    60    80    81    2
    61    79    78    1
    62    47    46    2
    63    46    54   am
    64    54    55    1
    65     5     6    1
    66     5     2    1
    67    78    68   am
    68    69    68    2
    69     6     7    1
    70     7     8    1
    71    68    67    1
    72     1     2    1
    73     8     9    1
    74    55    56    1
    75    57    56    2
    76     2     3    1
    77    74    72   ar
    78    74    76   ar
    79    72    71   ar
    80    77    76    1
    81     4     3    2
    82    67    66    1
    83    67    70    1
    84    76    75   ar
    85    66    60   am
    86    71    70    1
    87    71    73   ar
    88    75    73   ar
    89    58    59    1
    90    60    59    1
    91    60    61    2
    92    59    62    1
    93    64    63   ar
    94    62    63    1
    95    63    65   ar
