@<TRIPOS>MOLECULE
tmp/1p6xA00.pdb
 147 141 0 0 0
SMALL
GASTEIGER

@<TRIPOS>ATOM
      1  N         28.7400   16.0610   39.7310 N.3    15  TYR15      -0.1241
      2  CA        27.9180   14.8780   39.8870 C.3    15  TYR15       0.1605
      3  C         28.1140   13.9160   38.7230 C.2    15  TYR15       0.2264
      4  O         28.3410   14.3240   37.5830 O.2    15  TYR15      -0.2867
      5  CB        26.4250   15.2290   40.0970 C.3    15  TYR15       0.0534
      6  CG        25.7220   15.8320   38.9170 C.ar   15  TYR15      -0.0201
      7  CD1       24.9990   15.0370   38.0130 C.ar   15  TYR15      -0.0009
      8  CD2       25.7300   17.2060   38.7250 C.ar   15  TYR15      -0.0009
      9  CE1       24.3240   15.6340   36.9130 C.ar   15  TYR15       0.0417
     10  CE2       25.0690   17.7950   37.6620 C.ar   15  TYR15       0.0417
     11  CZ        24.3730   17.0230   36.7710 C.ar   15  TYR15       0.1957
     12  OH        23.7360   17.6760   35.7480 O.3    15  TYR15      -0.2866
     13  N         26.0950   11.9000   50.5660 N.3    41  GLU41      -0.1245
     14  CA        25.2240   13.0400   50.2580 C.3    41  GLU41       0.1567
     15  C         23.9310   12.9300   51.0690 C.2    41  GLU41       0.2260
     16  O         23.3970   11.8360   51.2510 O.2    41  GLU41      -0.2867
     17  CB        24.8890   13.1170   48.7650 C.3    41  GLU41       0.0388
     18  CG        26.0230   13.6890   47.9240 C.3    41  GLU41       0.1160
     19  CD        25.6200   13.8410   46.4680 C.2    41  GLU41       0.3649
     20  OE1       24.9340   12.9510   45.9320 O.co2  41  GLU41      -0.2457
     21  OE2       25.9390   14.8730   45.8690 O.co2  41  GLU41      -0.2457
     22  N         20.8530   12.8140   50.8500 N.3    43  MET43      -0.1245
     23  CA        19.8150   12.6050   49.8390 C.3    43  MET43       0.1570
     24  C         18.4010   12.7430   50.3970 C.2    43  MET43       0.2261
     25  O         17.5680   13.4100   49.7840 O.2    43  MET43      -0.2867
     26  CB        19.9790   11.2190   49.2050 C.3    43  MET43       0.0387
     27  CG        19.5910   11.1070   47.7350 C.3    43  MET43       0.0595
     28  SD        19.9180   12.4700   46.6520 S.3    43  MET43      -0.1393
     29  CE        21.5500   12.0830   46.0350 C.3    43  MET43       0.0692
     30  N         17.4210   16.3280   51.1540 N.3    46  TRP46      -0.1241
     31  CA        17.0770   16.9700   49.8910 C.3    46  TRP46       0.1605
     32  C         15.7330   16.5490   49.2900 C.2    46  TRP46       0.2264
     33  O         15.0200   17.3750   48.6870 O.2    46  TRP46      -0.2867
     34  CB        18.1740   16.6860   48.8700 C.3    46  TRP46       0.0550
     35  CG        19.4940   17.3870   49.1430 C.ar   46  TRP46       0.0003
     36  CD1       19.7070   18.4680   49.9380 C.ar   46  TRP46       0.0946
     37  CD2       20.7650   17.0480   48.5780 C.ar   46  TRP46       0.0152
     38  NE1       21.0380   18.8290   49.9040 N.ar   46  TRP46      -0.2442
     39  CE2       21.7140   17.9600   49.0930 C.ar   46  TRP46       0.0810
     40  CE3       21.2040   16.0470   47.6990 C.ar   46  TRP46       0.0012
     41  CZ2       23.0730   17.9270   48.7340 C.ar   46  TRP46       0.0191
     42  CZ3       22.5610   15.9960   47.3530 C.ar   46  TRP46       0.0001
     43  CH2       23.4780   16.9390   47.8670 C.ar   46  TRP46       0.0015
     44  N         15.9180   18.5690   44.3890 N.3    55  ILE55      -0.1245
     45  CA        16.5800   18.1580   43.1440 C.3    55  ILE55       0.1561
     46  C         15.5770   18.2730   41.9960 C.2    55  ILE55       0.2260
     47  O         15.8730   18.8990   40.9840 O.2    55  ILE55      -0.2867
     48  CB        17.2250   16.7540   43.2360 C.3    55  ILE55       0.0252
     49  CG1       18.5460   16.8270   44.0090 C.3    55  ILE55       0.0019
     50  CG2       17.4860   16.1960   41.8330 C.3    55  ILE55       0.0019
     51  CD1       18.9350   15.5520   44.7530 C.3    55  ILE55       0.0001
     52  N         14.7570   22.1730   41.5210 N.3    58  ILE58      -0.1231
     53  CA        15.7200   23.0180   40.8210 C.3    58  ILE58       0.1692
     54  C         15.7380   22.7190   39.3170 C.2    58  ILE58       0.2592
     55  O         15.8030   23.6390   38.5100 O.2    58  ILE58      -0.2718
     56  CB        17.1490   22.9780   41.4880 C.3    58  ILE58       0.0266
     57  CG1       17.9460   24.2350   41.1160 C.3    58  ILE58       0.0019
     58  CG2       17.9150   21.7010   41.1280 C.3    58  ILE58       0.0020
     59  CD1       19.0350   24.6260   42.1040 C.3    58  ILE58       0.0001
     60  N         15.6550   21.4410   38.9370 N.am   59  TYR59      -0.1976
     61  CA        15.5800   21.1060   37.5150 C.3    59  TYR59       0.1639
     62  C         14.2060   21.4890   36.9310 C.2    59  TYR59       0.2290
     63  O         14.1260   22.0080   35.8230 O.2    59  TYR59      -0.2864
     64  CB        15.9720   19.6430   37.2470 C.3    59  TYR59       0.0560
     65  CG        17.4550   19.3480   37.5130 C.ar   59  TYR59      -0.0198
     66  CD1       17.8510   18.5500   38.5910 C.ar   59  TYR59      -0.0009
     67  CD2       18.4570   19.8760   36.6890 C.ar   59  TYR59      -0.0009
     68  CE1       19.2120   18.2770   38.8400 C.ar   59  TYR59       0.0417
     69  CE2       19.8200   19.6210   36.9340 C.ar   59  TYR59       0.0417
     70  CZ        20.1870   18.8170   38.0120 C.ar   59  TYR59       0.1957
     71  OH        21.5210   18.5530   38.2490 O.3    59  TYR59      -0.2866
     72  N         18.9150   26.3260   45.5790 N.3    83  GLN83      -0.1245
     73  CA        20.3460   26.1980   45.7970 C.3    83  GLN83       0.1566
     74  C         20.6740   26.4150   47.2690 C.2    83  GLN83       0.2260
     75  O         21.5330   25.7400   47.8180 O.2    83  GLN83      -0.2867
     76  CB        21.0890   27.1720   44.8700 C.3    83  GLN83       0.0367
     77  CG        22.5150   26.8410   44.4610 C.3    83  GLN83       0.0905
     78  CD        22.8410   25.3540   44.4130 C.2    83  GLN83       0.2608
     79  OE1       22.4880   24.6610   43.4520 O.2    83  GLN83      -0.2717
     80  NE2       23.5130   24.8660   45.4470 N.am   83  GLN83      -0.0878
     81  N         19.9760   23.2100   49.1980 N.3    86  PHE86      -0.1241
     82  CA        20.9760   22.1550   49.0630 C.3    86  PHE86       0.1605
     83  C         21.9950   22.2480   50.2250 C.2    86  PHE86       0.2264
     84  O         22.4280   21.2210   50.7190 O.2    86  PHE86      -0.2867
     85  CB        21.7260   22.2490   47.7410 C.3    86  PHE86       0.0534
     86  CG        21.0570   21.5240   46.6120 C.ar   86  PHE86      -0.0203
     87  CD1       20.2510   22.2210   45.7150 C.ar   86  PHE86      -0.0042
     88  CD2       21.2400   20.1620   46.4370 C.ar   86  PHE86      -0.0042
     89  CE1       19.6270   21.5580   44.6480 C.ar   86  PHE86      -0.0003
     90  CE2       20.6150   19.4920   45.3970 C.ar   86  PHE86      -0.0003
     91  CZ        19.8100   20.1990   44.4830 C.ar   86  PHE86      -0.0000
     92  N         24.4410   20.1350   54.7620 N.3    90  TYR90      -0.1241
     93  CA        25.9140   20.2690   54.8400 C.3    90  TYR90       0.1605
     94  C         26.3390   21.1900   55.9490 C.2    90  TYR90       0.2264
     95  O         27.3230   20.9070   56.6320 O.2    90  TYR90      -0.2867
     96  CB        26.4790   20.7670   53.5080 C.3    90  TYR90       0.0534
     97  CG        26.5950   19.6350   52.5450 C.ar   90  TYR90      -0.0201
     98  CD1       27.6350   18.6960   52.6830 C.ar   90  TYR90      -0.0009
     99  CD2       25.6690   19.4590   51.5160 C.ar   90  TYR90      -0.0009
    100  CE1       27.7560   17.6140   51.8140 C.ar   90  TYR90       0.0417
    101  CE2       25.7870   18.3490   50.6260 C.ar   90  TYR90       0.0417
    102  CZ        26.8360   17.4380   50.8050 C.ar   90  TYR90       0.1957
    103  OH        26.9990   16.3530   49.9680 O.3    90  TYR90      -0.2866
    104  N         31.3410   15.4110   49.4930 N.3   120  ARG120     -0.1245
    105  CA        31.3420   16.8660   49.2960 C.3   120  ARG120      0.1563
    106  C         31.6970   17.6370   50.5600 C.2   120  ARG120      0.2260
    107  O         31.4710   17.1750   51.6660 O.2   120  ARG120     -0.2867
    108  CB        30.0240   17.4020   48.6970 C.3   120  ARG120      0.0307
    109  CG        29.5110   16.6670   47.4540 C.3   120  ARG120      0.0489
    110  CD        28.1540   17.2380   46.8760 C.3   120  ARG120      0.2205
    111  NE        27.8640   16.6640   45.5480 N.pl3 120  ARG120     -0.0865
    112  CZ        28.5280   17.0080   44.4580 C.cat 120  ARG120      0.5346
    113  NH1       29.4830   17.9020   44.5570 N.pl3 120  ARG120      0.1354
    114  NH2       28.2590   16.4620   43.2740 N.pl3 120  ARG120      0.1354
    115  N         30.7170   22.9670   47.9090 N.3   124  ALA124     -0.1231
    116  CA        30.0020   22.4770   46.7210 C.3   124  ALA124      0.1694
    117  C         28.6950   23.2410   46.5760 C.2   124  ALA124      0.2592
    118  O         28.3950   23.7750   45.5120 O.2   124  ALA124     -0.2718
    119  CB        29.7010   20.9690   46.8340 C.3   124  ALA124      0.0304
    120  N         27.9400   23.3150   47.6710 N.am  125  SER125     -0.1952
    121  CA        26.5880   23.8810   47.6320 C.3   125  SER125      0.1924
    122  C         26.5570   25.3850   47.8780 C.2   125  SER125      0.2314
    123  O         25.6190   26.0660   47.4850 O.2   125  SER125     -0.2863
    124  CB        25.6570   23.0970   48.5750 C.3   125  SER125      0.2116
    125  OG        26.1410   23.0790   49.9300 O.3   125  SER125     -0.2180
    126  N         28.2270   25.0910   42.8440 N.3   129  PHE129     -0.1241
    127  CA        26.9590   24.9650   42.1330 C.3   129  PHE129      0.1605
    128  C         26.2800   26.3160   41.9370 C.2   129  PHE129      0.2264
    129  O         25.8210   26.5900   40.8400 O.2   129  PHE129     -0.2867
    130  CB        26.0510   23.9500   42.8100 C.3   129  PHE129      0.0534
    131  CG        26.3480   22.5050   42.4210 C.ar  129  PHE129     -0.0203
    132  CD1       27.4370   21.8230   42.9740 C.ar  129  PHE129     -0.0042
    133  CD2       25.5260   21.8300   41.5180 C.ar  129  PHE129     -0.0042
    134  CE1       27.7070   20.4790   42.6250 C.ar  129  PHE129     -0.0003
    135  CE2       25.7930   20.4890   41.1590 C.ar  129  PHE129     -0.0003
    136  CZ        26.8880   19.8130   41.7340 C.ar  129  PHE129     -0.0000
    137  N         25.4750   27.9960   38.2710 N.3   133  ARG133     -0.1245
    138  CA        24.1570   28.5770   37.9720 C.3   133  ARG133      0.1563
    139  C         24.2210   30.0510   37.5730 C.2   133  ARG133      0.2260
    140  O         23.5070   30.4700   36.6500 O.2   133  ARG133     -0.2867
    141  CB        23.1870   28.3710   39.1300 C.3   133  ARG133      0.0307
    142  CG        22.8420   26.9030   39.4280 C.3   133  ARG133      0.0489
    143  CD        21.8990   26.2930   38.4140 C.3   133  ARG133      0.2205
    144  NE        21.5630   24.9030   38.6830 N.pl3 133  ARG133     -0.0865
    145  CZ        20.8490   24.1500   37.8580 C.cat 133  ARG133      0.5346
    146  NH1       20.3840   24.6650   36.7220 N.pl3 133  ARG133      0.1354
    147  NH2       20.5810   22.8900   38.1700 N.pl3 133  ARG133      0.1354
@<TRIPOS>BOND
     1    12    11    1
     2    63    62    2
     3   140   139    2
     4    67    69   ar
     5    67    65   ar
     6   146   145    1
     7    11     9   ar
     8    11    10   ar
     9     9     7   ar
    10    62    61    1
    11    69    70   ar
    12    64    65    1
    13    64    61    1
    14    65    66   ar
    15    61    60    1
    16   139   138    1
    17     4     3    2
    18    10     8   ar
    19   145   147    1
    20   145   144    2
    21   138   137    1
    22   138   141    1
    23    70    71    1
    24    70    68   ar
    25     7     6   ar
    26   143   144    1
    27   143   142    1
    28    55    54    2
    29    66    68   ar
    30     3     2    1
    31     8     6   ar
    32     6     5    1
    33    60    54   am
    34   141   142    1
    35    54    53    1
    36     1     2    1
    37     2     5    1
    38    53    56    1
    39    53    52    1
    40   129   128    2
    41    47    46    2
    42    57    56    1
    43    57    59    1
    44    58    56    1
    45   135   133   ar
    46   135   136   ar
    47   133   131   ar
    48   136   134   ar
    49    50    48    1
    50   128   127    1
    51    46    45    1
    52   127   130    1
    53   127   126    1
    54   131   130    1
    55   131   132   ar
    56   134   132   ar
    57    45    48    1
    58    45    44    1
    59    48    49    1
    60   114   112    1
    61    79    78    2
    62    49    51    1
    63    78    77    1
    64    78    80   am
    65   112   113    1
    66   112   111    2
    67    77    76    1
    68    91    89   ar
    69    91    90   ar
    70    89    87   ar
    71    76    73    1
    72    90    88   ar
    73   118   117    2
    74   111   110    1
    75    72    73    1
    76    87    86   ar
    77    73    74    1
    78    21    19   ar
    79    20    19   ar
    80    29    28    1
    81    88    86   ar
    82    19    18    1
    83   117   116    1
    84   117   120   am
    85    86    85    1
    86    28    27    1
    87   116   119    1
    88   116   115    1
    89   110   109    1
    90    74    75    2
    91    42    40   ar
    92    42    43   ar
    93   109   108    1
    94   123   122    2
    95   121   120    1
    96   121   122    1
    97   121   124    1
    98    40    37   ar
    99    27    26    1
   100    85    82    1
   101    43    41   ar
   102    18    17    1
   103   124   125    1
   104    37    39   ar
   105    37    35   ar
   106    33    32    2
   107   108   105    1
   108    41    39   ar
   109    17    14    1
   110    34    35    1
   111    34    31    1
   112    82    81    1
   113    82    83    1
   114    39    38   ar
   115    35    36   ar
   116    26    23    1
   117    32    31    1
   118   105   104    1
   119   105   106    1
   120    25    24    2
   121    23    24    1
   122    23    22    1
   123    31    30    1
   124    38    36   ar
   125   103   102    1
   126    83    84    2
   127    14    13    1
   128    14    15    1
   129   106   107    2
   130   101   102   ar
   131   101    99   ar
   132   102   100   ar
   133    15    16    2
   134    99    97   ar
   135   100    98   ar
   136    97    98   ar
   137    97    96    1
   138    96    93    1
   139    92    93    1
   140    93    94    1
   141    94    95    2
