@<TRIPOS>MOLECULE
tmp/1p72B00.pdb
 157 150 0 0 0
SMALL
GASTEIGER

@<TRIPOS>ATOM
      1  N         12.2200   44.0880   67.3100 N.3    14  VAL14      -0.1231
      2  CA        11.2190   44.2810   66.2560 C.3    14  VAL14       0.1692
      3  C         11.4390   45.6630   65.6370 C.2    14  VAL14       0.2592
      4  O         11.8000   46.6210   66.3370 O.2    14  VAL14      -0.2718
      5  CB         9.7750   44.1590   66.8290 C.3    14  VAL14       0.0266
      6  CG1        8.7330   44.1000   65.7050 C.3    14  VAL14       0.0020
      7  CG2        9.6590   42.9200   67.6990 C.3    14  VAL14       0.0020
      8  N         11.2310   45.7770   64.3320 N.am   15  TYR15      -0.1962
      9  CA        11.3960   47.0610   63.6640 C.3    15  TYR15       0.1771
     10  C         10.3550   48.0700   64.1680 C.2    15  TYR15       0.2620
     11  O          9.2780   47.6940   64.5950 O.2    15  TYR15      -0.2715
     12  CB        11.3370   46.9150   62.1380 C.3    15  TYR15       0.0574
     13  CG        10.0000   46.4450   61.5580 C.ar   15  TYR15      -0.0198
     14  CD1        9.0580   47.3680   61.0580 C.ar   15  TYR15      -0.0009
     15  CD2        9.6920   45.0920   61.4730 C.ar   15  TYR15      -0.0009
     16  CE1        7.8380   46.9390   60.4930 C.ar   15  TYR15       0.0417
     17  CE2        8.4830   44.6530   60.9250 C.ar   15  TYR15       0.0417
     18  CZ         7.5590   45.5800   60.4320 C.ar   15  TYR15       0.1957
     19  OH         6.3660   45.1210   59.8970 O.3    15  TYR15      -0.2866
     20  N         10.7070   49.3470   64.1250 N.am   16  GLY16      -0.1940
     21  CA         9.8090   50.4140   64.5430 C.3    16  GLY16       0.2014
     22  C          9.8200   50.8030   66.0120 C.2    16  GLY16       0.2639
     23  O          9.1240   51.7480   66.3900 O.2    16  GLY16      -0.2714
     24  N         10.5970   50.0950   66.8340 N.am   17  ILE17      -0.1963
     25  CA        10.7220   50.3870   68.2700 C.3    17  ILE17       0.1727
     26  C         11.6120   51.6110   68.5740 C.2    17  ILE17       0.2617
     27  O         11.3190   52.3480   69.5140 O.2    17  ILE17      -0.2715
     28  CB        11.1830   49.1220   69.0650 C.3    17  ILE17       0.0290
     29  CG1       10.1220   48.0190   68.9500 C.3    17  ILE17       0.0022
     30  CG2       11.4640   49.4420   70.5500 C.3    17  ILE17       0.0023
     31  CD1       10.2460   46.8770   69.9910 C.3    17  ILE17       0.0001
     32  N         12.6630   51.8410   67.7860 N.am   18  GLY18      -0.1940
     33  CA        13.5780   52.9630   67.9960 C.3    18  GLY18       0.2014
     34  C         15.0540   52.6150   68.1690 C.2    18  GLY18       0.2639
     35  O         15.8760   53.4440   68.6340 O.2    18  GLY18      -0.2714
     36  N         15.3990   51.3820   67.7860 N.am   19  LYS19      -0.1963
     37  CA        16.7560   50.8630   67.9510 C.3    19  LYS19       0.1728
     38  C         17.8150   51.6860   67.2010 C.2    19  LYS19       0.2617
     39  O         18.8410   52.0550   67.7790 O.2    19  LYS19      -0.2715
     40  CB        16.7860   49.3620   67.5870 C.3    19  LYS19       0.0311
     41  CG        18.0390   48.8300   66.8870 C.3    19  LYS19       0.0038
     42  CD        17.8040   47.3750   66.3340 C.3    19  LYS19       0.0206
     43  CE        16.9090   47.3120   65.0770 C.3    19  LYS19       0.1093
     44  NZ        17.1290   48.4360   64.1050 N.3    19  LYS19      -0.1314
     45  N         17.5630   51.9730   65.9240 N.am   20  SER20      -0.1936
     46  CA        18.5320   52.7060   65.1070 C.3    20  SER20       0.2055
     47  C         18.7520   54.1310   65.6520 C.2    20  SER20       0.2644
     48  O         19.8960   54.6040   65.7480 O.2    20  SER20      -0.2714
     49  CB        18.0880   52.7520   63.6410 C.3    20  SER20       0.2130
     50  OG        18.0570   51.4460   63.0750 O.3    20  SER20      -0.2179
     51  N         17.6450   54.7960   65.9960 N.am   21  THR21      -0.1936
     52  CA        17.6790   56.1300   66.6070 C.3    21  THR21       0.2028
     53  C         18.5310   56.1100   67.8700 C.2    21  THR21       0.2642
     54  O         19.3900   56.9670   68.0620 O.2    21  THR21      -0.2714
     55  CB        16.2360   56.6180   66.9430 C.3    21  THR21       0.1808
     56  OG1       15.4790   56.7260   65.7330 O.3    21  THR21      -0.2208
     57  CG2       16.2420   58.0610   67.4600 C.3    21  THR21       0.0379
     58  N         18.2960   55.1220   68.7210 N.am   22  THR22      -0.1950
     59  CA        19.0420   54.9910   69.9750 C.3    22  THR22       0.1897
     60  C         20.5280   54.8250   69.7050 C.2    22  THR22       0.2313
     61  O         21.3480   55.5350   70.2840 O.2    22  THR22      -0.2863
     62  CB        18.4760   53.8260   70.7970 C.3    22  THR22       0.1794
     63  OG1       17.0670   54.0490   71.0260 O.3    22  THR22      -0.2208
     64  CG2       19.0810   53.8090   72.1900 C.3    22  THR22       0.0378
     65  N         22.3300   55.6840   67.0460 N.3    24  ARG24      -0.1245
     66  CA        22.9620   56.9000   66.5180 C.3    24  ARG24       0.1563
     67  C         23.2790   57.8850   67.6560 C.2    24  ARG24       0.2260
     68  O         24.3760   58.4640   67.7060 O.2    24  ARG24      -0.2867
     69  CB        22.0720   57.5910   65.4660 C.3    24  ARG24       0.0307
     70  CG        21.7680   56.7820   64.2220 C.3    24  ARG24       0.0489
     71  CD        21.0250   57.5640   63.1220 C.3    24  ARG24       0.2205
     72  NE        19.5600   57.5680   63.2770 N.pl3  24  ARG24      -0.0865
     73  CZ        18.7240   56.7290   62.6530 C.cat  24  ARG24       0.5346
     74  NH1       19.1910   55.8080   61.8250 N.pl3  24  ARG24       0.1354
     75  NH2       17.4150   56.8150   62.8590 N.pl3  24  ARG24       0.1354
     76  N         22.0150   49.5600   60.0060 N.3    38  GLU38      -0.1245
     77  CA        21.3970   48.4990   59.2130 C.3    38  GLU38       0.1567
     78  C         21.9870   48.6180   57.7990 C.2    38  GLU38       0.2260
     79  O         22.2260   49.7380   57.3410 O.2    38  GLU38      -0.2867
     80  CB        19.8600   48.6560   59.1630 C.3    38  GLU38       0.0388
     81  CG        19.0980   48.0250   60.3460 C.3    38  GLU38       0.1160
     82  CD        17.5990   47.8580   60.0720 C.2    38  GLU38       0.3649
     83  OE1       17.0160   48.7010   59.3410 O.co2  38  GLU38      -0.2457
     84  OE2       16.9990   46.8680   60.5660 O.co2  38  GLU38      -0.2457
     85  N         21.3770   45.4010   65.0570 N.3   117  ARG117     -0.1245
     86  CA        21.0230   43.9930   64.9000 C.3   117  ARG117      0.1563
     87  C         22.2600   43.0710   64.9040 C.2   117  ARG117      0.2260
     88  O         23.3340   43.4370   64.4280 O.2   117  ARG117     -0.2867
     89  CB        20.1900   43.7420   63.6360 C.3   117  ARG117      0.0307
     90  CG        18.9610   44.6450   63.4640 C.3   117  ARG117      0.0489
     91  CD        18.0140   44.1870   62.3580 C.3   117  ARG117      0.2205
     92  NE        16.7350   44.8870   62.4330 N.pl3 117  ARG117     -0.0865
     93  CZ        15.7070   44.5260   63.2090 C.cat 117  ARG117      0.5346
     94  NH1       15.8060   43.4620   63.9980 N.pl3 117  ARG117      0.1354
     95  NH2       14.5830   45.2540   63.2200 N.pl3 117  ARG117      0.1354
     96  N          2.7250   52.7020   71.9960 N.3   166  GLU166     -0.1245
     97  CA         3.8120   53.5350   71.5230 C.3   166  GLU166      0.1567
     98  C          4.5220   52.8840   70.3110 C.2   166  GLU166      0.2260
     99  O          4.9720   53.5780   69.4020 O.2   166  GLU166     -0.2867
    100  CB         4.7760   53.8110   72.6850 C.3   166  GLU166      0.0388
    101  CG         5.9650   54.7110   72.3570 C.3   166  GLU166      0.1160
    102  CD         5.5680   56.0940   71.8490 C.2   166  GLU166      0.3649
    103  OE1        4.4540   56.5880   72.1650 O.co2 166  GLU166     -0.2457
    104  OE2        6.3900   56.7020   71.1370 O.co2 166  GLU166     -0.2457
    105  N          4.9510   54.7430   66.8050 N.3   170  ARG170     -0.1245
    106  CA         6.2430   54.8880   66.1430 C.3   170  ARG170      0.1563
    107  C          6.2710   54.2380   64.7590 C.2   170  ARG170      0.2260
    108  O          6.8850   54.7830   63.8530 O.2   170  ARG170     -0.2867
    109  CB         7.3800   54.3860   67.0460 C.3   170  ARG170      0.0307
    110  CG         7.5680   55.2450   68.3020 C.3   170  ARG170      0.0489
    111  CD         8.8200   54.9360   69.1190 C.3   170  ARG170      0.2205
    112  NE         8.7770   55.6240   70.4040 N.pl3 170  ARG170     -0.0865
    113  CZ         9.6480   55.4620   71.3940 C.cat 170  ARG170      0.5346
    114  NH1       10.6800   54.6110   71.2730 N.pl3 170  ARG170      0.1354
    115  NH2        9.4900   56.1550   72.5200 N.pl3 170  ARG170      0.1354
    116  N          5.1990   56.4400   62.2600 N.3   173  THR173     -0.1203
    117  CA         6.1280   57.5430   61.9570 C.3   173  THR173      0.1994
    118  C          7.3250   57.2580   61.0280 C.2   173  THR173      0.2617
    119  O          7.9820   58.2060   60.5740 O.2   173  THR173     -0.2717
    120  CB         6.6300   58.2560   63.2550 C.3   173  THR173      0.1784
    121  OG1        7.3260   57.3210   64.0940 O.3   173  THR173     -0.2211
    122  CG2        5.4540   58.7460   64.1140 C.3   173  THR173      0.0376
    123  N          7.6210   55.9920   60.7320 N.am  174  ARG174     -0.1979
    124  CA         8.7860   55.7030   59.8750 C.3   174  ARG174      0.1597
    125  C          8.5550   56.0510   58.4030 C.2   174  ARG174      0.2287
    126  O          7.4270   55.9740   57.9060 O.2   174  ARG174     -0.2864
    127  CB         9.3150   54.2630   60.0160 C.3   174  ARG174      0.0334
    128  CG         8.4020   53.2710   60.6920 C.3   174  ARG174      0.0492
    129  CD         9.0930   52.0290   61.2230 C.3   174  ARG174      0.2205
    130  NE         9.7960   51.2610   60.1930 N.pl3 174  ARG174     -0.0865
    131  CZ        11.0760   50.9030   60.2650 C.cat 174  ARG174      0.5346
    132  NH1       11.8190   51.2430   61.3190 N.pl3 174  ARG174      0.1354
    133  NH2       11.6190   50.1960   59.2810 N.pl3 174  ARG174      0.1354
    134  N         11.2370   56.1650   76.5440 N.3   288  GLY288     -0.1210
    135  CA        11.7280   57.5280   76.7040 C.3   288  GLY288      0.1956
    136  C         12.0340   58.2360   75.3940 C.2   288  GLY288      0.2613
    137  O         11.7410   57.7250   74.2990 O.2   288  GLY288     -0.2717
    138  N         12.6110   59.4290   75.5160 N.am  289  THR289     -0.1939
    139  CA        13.1380   60.1680   74.3730 C.3   289  THR289      0.2013
    140  C         14.3970   59.4700   73.8690 C.2   289  THR289      0.2484
    141  O         14.9460   58.6120   74.5680 O.2   289  THR289     -0.2729
    142  CB        13.4860   61.6360   74.7680 C.3   289  THR289      0.1807
    143  OG1       14.4190   61.6290   75.8530 O.3   289  THR289     -0.2208
    144  CG2       12.2610   62.3840   75.3240 C.3   289  THR289      0.0379
    145  N         14.8620   59.8170   72.6660 N.am  290  PRO290     -0.2726
    146  CA        16.1140   59.2510   72.1560 C.3   290  PRO290      0.1402
    147  C         17.2650   59.3810   73.1650 C.2   290  PRO290      0.2269
    148  O         18.0400   58.4100   73.3120 O.2   290  PRO290     -0.2865
    149  CB        16.3770   60.0810   70.8960 C.3   290  PRO290      0.0296
    150  CG        15.0180   60.4050   70.4010 C.3   290  PRO290      0.0237
    151  CD        14.2310   60.7220   71.6760 C.3   290  PRO290      0.0939
    152  N         16.7090   56.9650   76.0050 N.3   293  CYS293     -0.1235
    153  CA        16.8870   55.6270   75.4510 C.3   293  CYS293      0.1677
    154  C         18.3620   55.2360   75.4160 C.2   293  CYS293      0.2270
    155  O         18.7390   54.1280   75.8320 O.2   293  CYS293     -0.2867
    156  CB        16.2970   55.5420   74.0380 C.3   293  CYS293      0.0956
    157  SG        14.4970   55.3860   73.9830 S.3   293  CYS293     -0.0801
@<TRIPOS>BOND
     1    79    78    2
     2    78    77    1
     3   126   125    2
     4   125   124    1
     5    80    77    1
     6    80    81    1
     7    77    76    1
     8   133   131    1
     9    83    82   ar
    10   124   127    1
    11   124   123    1
    12    19    18    1
    13   127   128    1
    14    82    81    1
    15    82    84   ar
    16   130   131    2
    17   130   129    1
    18   131   132    1
    19    18    16   ar
    20    18    17   ar
    21    16    14   ar
    22   119   118    2
    23   128   129    1
    24   123   118   am
    25    17    15   ar
    26   118   117    1
    27    14    13   ar
    28    15    13   ar
    29    13    12    1
    30    74    73    1
    31   117   116    1
    32   117   120    1
    33    12     9    1
    34    91    92    1
    35    91    90    1
    36    92    93    2
    37    73    75    1
    38    73    72    2
    39    50    49    1
    40    71    72    1
    41    71    70    1
    42    93    95    1
    43    93    94    1
    44   120   121    1
    45   120   122    1
    46    90    89    1
    47    89    86    1
    48    49    46    1
    49     9    10    1
    50     9     8    1
    51   108   107    2
    52    44    43    1
    53    20    10   am
    54    20    21    1
    55    10    11    2
    56    70    69    1
    57     8     3   am
    58    88    87    2
    59    21    22    1
    60   107   106    1
    61    86    87    1
    62    86    85    1
    63    43    42    1
    64    46    47    1
    65    46    45    1
    66    69    66    1
    67     3     2    1
    68     3     4    2
    69    47    48    2
    70    47    51   am
    71     6     5    1
    72    56    55    1
    73    45    38   am
    74    51    52    1
    75    22    23    2
    76    22    24   am
    77   106   105    1
    78   106   109    1
    79     2     5    1
    80     2     1    1
    81    42    41    1
    82    66    65    1
    83    66    67    1
    84    52    55    1
    85    52    53    1
    86     5     7    1
    87    24    25    1
    88    41    40    1
    89    55    57    1
    90   109   110    1
    91    38    39    2
    92    38    37    1
    93    40    37    1
    94    67    68    2
    95    32    33    1
    96    32    26   am
    97    36    37    1
    98    36    34   am
    99    53    54    2
   100    53    58   am
   101    33    34    1
   102    34    35    2
   103    25    26    1
   104    25    28    1
   105   110   111    1
   106    26    27    2
   107    58    59    1
   108    29    28    1
   109    29    31    1
   110    28    30    1
   111   111   112    1
   112    99    98    2
   113    60    59    1
   114    60    61    2
   115    59    62    1
   116    98    97    1
   117   150   149    1
   118   150   151    1
   119   112   113    2
   120    62    63    1
   121    62    64    1
   122   149   146    1
   123   104   102   ar
   124   114   113    1
   125   113   115    1
   126    97    96    1
   127    97   100    1
   128   151   145    1
   129   102   103   ar
   130   102   101    1
   131   146   145    1
   132   146   147    1
   133   101   100    1
   134   145   140   am
   135   147   148    2
   136   140   139    1
   137   140   141    2
   138   157   156    1
   139   156   153    1
   140   137   136    2
   141   139   142    1
   142   139   138    1
   143   142   144    1
   144   142   143    1
   145   136   138   am
   146   136   135    1
   147   154   153    1
   148   154   155    2
   149   153   152    1
   150   134   135    1
