@<TRIPOS>MOLECULE
tmp/1p75B00.pdb
 84 77 0 0 0
SMALL
GASTEIGER

@<TRIPOS>ATOM
      1  N         27.8070   52.2120   81.2160 N.3    16  GLY16      -0.1225
      2  CA        27.8710   53.1360   82.3360 C.3    16  GLY16       0.1811
      3  C         26.5470   53.4320   83.0240 C.2    16  GLY16       0.2280
      4  O         26.4400   54.3560   83.8220 O.2    16  GLY16      -0.2866
      5  N         24.6120   51.0760   84.8040 N.3    18  GLY18      -0.1225
      6  CA        24.4400   50.3110   86.0230 C.3    18  GLY18       0.1811
      7  C         24.2000   48.8340   85.7920 C.2    18  GLY18       0.2280
      8  O         24.1810   48.0560   86.7400 O.2    18  GLY18      -0.2866
      9  N         26.3560   45.9920   87.5410 N.3    21  THR21      -0.1203
     10  CA        26.0750   45.9910   88.9720 C.3    21  THR21       0.1994
     11  C         24.7040   45.3640   89.2750 C.2    21  THR21       0.2618
     12  O         24.5750   44.5630   90.2030 O.2    21  THR21      -0.2717
     13  CB        26.2140   47.4200   89.5400 C.3    21  THR21       0.1784
     14  OG1       27.4920   47.5500   90.1730 O.3    21  THR21      -0.2211
     15  CG2       25.2560   47.6720   90.6710 C.3    21  THR21       0.0376
     16  N         23.6970   45.7090   88.4760 N.am   22  THR22      -0.1952
     17  CA        22.3730   45.1100   88.5750 C.3    22  THR22       0.1897
     18  C         22.4650   43.5930   88.4770 C.2    22  THR22       0.2313
     19  O         21.9920   42.9010   89.3520 O.2    22  THR22      -0.2863
     20  CB        21.4890   45.6670   87.4620 C.3    22  THR22       0.1794
     21  OG1       21.4610   47.0920   87.5670 O.3    22  THR22      -0.2208
     22  CG2       20.0470   45.2590   87.6410 C.3    22  THR22       0.0378
     23  N         21.3780   61.3210   85.6290 N.3   169  GLU169     -0.1245
     24  CA        21.8350   60.2220   86.4580 C.3   169  GLU169      0.1567
     25  C         22.8770   59.3900   85.7560 C.2   169  GLU169      0.2260
     26  O         23.8540   58.9780   86.3700 O.2   169  GLU169     -0.2867
     27  CB        20.6490   59.3420   86.8560 C.3   169  GLU169      0.0388
     28  CG        20.9210   58.2600   87.8980 C.3   169  GLU169      0.1160
     29  CD        21.9070   58.6560   88.9920 C.2   169  GLU169      0.3649
     30  OE1       22.0800   59.8680   89.3090 O.co2 169  GLU169     -0.2457
     31  OE2       22.5130   57.7220   89.5510 O.co2 169  GLU169     -0.2457
     32  N         26.8030   58.7820   87.0350 N.3   173  ARG173     -0.1245
     33  CA        27.4630   57.4950   87.2120 C.3   173  ARG173      0.1563
     34  C         28.7690   57.4800   86.4120 C.2   173  ARG173      0.2260
     35  O         29.8480   57.2030   86.9460 O.2   173  ARG173     -0.2867
     36  CB        26.5390   56.3410   86.7990 C.3   173  ARG173      0.0307
     37  CG        25.1230   56.4330   87.3670 C.3   173  ARG173      0.0489
     38  CD        24.5500   55.1080   87.8680 C.3   173  ARG173      0.2205
     39  NE        23.3920   55.2690   88.7590 N.pl3 173  ARG173     -0.0865
     40  CZ        22.2570   54.5630   88.6720 C.cat 173  ARG173      0.5346
     41  NH1       22.0980   53.6310   87.7220 N.pl3 173  ARG173      0.1354
     42  NH2       21.2730   54.7870   89.5410 N.pl3 173  ARG173      0.1354
     43  N         31.4560   58.8260   88.1360 N.3   176  THR176     -0.1203
     44  CA        31.7000   58.1090   89.3990 C.3   176  THR176      0.1994
     45  C         32.8150   57.0570   89.2900 C.2   176  THR176      0.2617
     46  O         33.7150   57.0300   90.1350 O.2   176  THR176     -0.2717
     47  CB        30.3960   57.4770   89.9350 C.3   176  THR176      0.1784
     48  OG1       29.4190   58.5000   90.1280 O.3   176  THR176     -0.2211
     49  CG2       30.5960   56.9290   91.3440 C.3   176  THR176      0.0376
     50  N         32.7570   56.1940   88.2700 N.am  177  ARG177     -0.1979
     51  CA        33.9580   55.4480   87.8770 C.3   177  ARG177      0.1597
     52  C         34.8770   56.4450   87.1640 C.2   177  ARG177      0.2287
     53  O         35.2170   57.4760   87.7520 O.2   177  ARG177     -0.2864
     54  CB        33.6700   54.2020   87.0250 C.3   177  ARG177      0.0334
     55  CG        32.2710   54.1140   86.4290 C.3   177  ARG177      0.0492
     56  CD        32.2050   53.3350   85.1120 C.3   177  ARG177      0.2205
     57  NE        32.7320   54.1310   83.9990 N.pl3 177  ARG177     -0.0865
     58  CZ        32.3070   54.0590   82.7360 C.cat 177  ARG177      0.5346
     59  NH1       31.3350   53.2180   82.3950 N.pl3 177  ARG177      0.1354
     60  NH2       32.8620   54.8310   81.8030 N.pl3 177  ARG177      0.1354
     61  N         16.7510   53.6510   90.6920 N.3   291  GLY291     -0.1210
     62  CA        16.7650   53.0840   92.0190 C.3   291  GLY291      0.1956
     63  C         18.1690   52.6930   92.4240 C.2   291  GLY291      0.2613
     64  O         19.1400   53.0160   91.7350 O.2   291  GLY291     -0.2717
     65  N         18.2560   52.0180   93.5670 N.am  292  THR292     -0.1939
     66  CA        19.5040   51.4630   94.0860 C.3   292  THR292      0.2013
     67  C         19.7310   50.0540   93.5040 C.2   292  THR292      0.2484
     68  O         18.8020   49.4550   92.9270 O.2   292  THR292     -0.2729
     69  CB        19.4710   51.4350   95.6300 C.3   292  THR292      0.1807
     70  OG1       18.4880   50.4820   96.0690 O.3   292  THR292     -0.2208
     71  CG2       18.9670   52.7790   96.1800 C.3   292  THR292      0.0379
     72  N         20.9580   49.5400   93.6100 N.am  293  PRO293     -0.2726
     73  CA        21.2560   48.2150   93.0640 C.3   293  PRO293      0.1402
     74  C         20.1320   47.2270   93.3700 C.2   293  PRO293      0.2269
     75  O         19.5550   46.6780   92.4470 O.2   293  PRO293     -0.2865
     76  CB        22.5610   47.8660   93.7470 C.3   293  PRO293      0.0296
     77  CG        23.2430   49.2340   93.8410 C.3   293  PRO293      0.0237
     78  CD        22.1460   50.1750   94.2190 C.3   293  PRO293      0.0939
     79  N         16.9400   48.1050   91.4330 N.3   296  CYS296     -0.1235
     80  CA        17.1540   47.7210   90.0490 C.3   296  CYS296      0.1677
     81  C         16.9490   46.2330   89.8420 C.2   296  CYS296      0.2270
     82  O         16.3020   45.8100   88.8750 O.2   296  CYS296     -0.2867
     83  CB        18.5820   48.0030   89.6660 C.3   296  CYS296      0.0956
     84  SG        19.0140   49.7150   89.5150 S.3   296  CYS296     -0.0801
@<TRIPOS>BOND
     1     1     2    1
     2    60    58    1
     3     2     3    1
     4    59    58    1
     5    58    57    2
     6     3     4    2
     7    57    56    1
     8     5     6    1
     9    56    55    1
    10    23    24    1
    11    25    26    2
    12    25    24    1
    13     7     6    1
    14     7     8    2
    15    34    35    2
    16    34    33    1
    17    55    54    1
    18    24    27    1
    19    36    33    1
    20    36    37    1
    21    27    28    1
    22    54    51    1
    23    32    33    1
    24    52    53    2
    25    52    51    1
    26    37    38    1
    27    20    21    1
    28    20    22    1
    29    20    17    1
    30     9    10    1
    31    41    40    1
    32    38    39    1
    33    51    50    1
    34    28    29    1
    35    43    44    1
    36    50    45   am
    37    16    17    1
    38    16    11   am
    39    18    17    1
    40    18    19    2
    41    40    39    2
    42    40    42    1
    43    82    81    2
    44    10    11    1
    45    10    13    1
    46    29    30   ar
    47    29    31   ar
    48    11    12    2
    49    45    44    1
    50    45    46    2
    51    44    47    1
    52    84    83    1
    53    13    14    1
    54    13    15    1
    55    83    80    1
    56    81    80    1
    57    47    48    1
    58    47    49    1
    59    80    79    1
    60    61    62    1
    61    64    63    2
    62    62    63    1
    63    63    65   am
    64    75    74    2
    65    68    67    2
    66    73    74    1
    67    73    72    1
    68    73    76    1
    69    67    72   am
    70    67    66    1
    71    65    66    1
    72    72    78    1
    73    76    77    1
    74    77    78    1
    75    66    69    1
    76    69    70    1
    77    69    71    1
