@<TRIPOS>MOLECULE
tmp/1p77A00.pdb
 103 96 0 0 0
SMALL
GASTEIGER

@<TRIPOS>ATOM
      1  N         26.0550    4.8840   17.0540 N.3   126  GLY126     -0.1210
      2  CA        27.1620    5.5230   16.3650 C.3   126  GLY126      0.1956
      3  C         27.7310    6.6790   17.1520 C.2   126  GLY126      0.2612
      4  O         26.9950    7.4330   17.8150 O.2   126  GLY126     -0.2717
      5  N         29.0450    6.8360   17.0910 N.am  127  ALA127     -0.1965
      6  CA        29.6740    7.8790   17.8660 C.3   127  ALA127      0.1728
      7  C         30.7690    8.5150   17.0440 C.2   127  ALA127      0.2617
      8  O         31.8760    8.7410   17.5370 O.2   127  ALA127     -0.2715
      9  CB        30.2350    7.3200   19.1610 C.3   127  ALA127      0.0334
     10  N         30.4510    8.7610   15.7780 N.am  128  GLY128     -0.1940
     11  CA        31.3390    9.4590   14.8660 C.3   128  GLY128      0.2014
     12  C         30.9920   10.9430   14.9000 C.2   128  GLY128      0.2639
     13  O         30.3580   11.4140   15.8390 O.2   128  GLY128     -0.2714
     14  N         31.4080   11.6750   13.8720 N.am  129  GLY129     -0.1939
     15  CA        31.1930   13.1080   13.8410 C.3   129  GLY129      0.2014
     16  C         29.7240   13.4460   13.7800 C.2   129  GLY129      0.2638
     17  O         29.2880   14.4490   14.3530 O.2   129  GLY129     -0.2714
     18  N         28.9500   12.6210   13.0880 N.am  130  ALA130     -0.1977
     19  CA        27.5290   12.9000   12.9840 C.3   130  ALA130      0.1597
     20  C         26.9050   13.0080   14.3800 C.2   130  ALA130      0.2287
     21  O         26.2510   13.9750   14.6760 O.2   130  ALA130     -0.2864
     22  CB        26.8180   11.8550   12.1420 C.3   130  ALA130      0.0319
     23  N         28.2360    2.4430   20.3250 N.3   149  ASN149     -0.1225
     24  CA        29.0060    2.4630   19.0830 C.3   149  ASN149      0.1785
     25  C         29.7700    1.1340   18.9210 C.2   149  ASN149      0.2597
     26  O         30.1180    0.5170   19.9150 O.2   149  ASN149     -0.2718
     27  CB        29.9770    3.6530   19.1180 C.3   149  ASN149      0.1169
     28  CG        30.8060    3.8010   17.8480 C.2   149  ASN149      0.2627
     29  OD1       30.1380    3.9500   16.7170 O.2   149  ASN149     -0.2716
     30  ND2       32.0480    3.8180   17.9020 N.am  149  ASN149     -0.0877
     31  N         30.0420    0.7470   17.6770 N.am  150  ARG150     -0.1966
     32  CA        30.8590   -0.4150   17.4100 C.3   150  ARG150      0.1729
     33  C         32.1480   -0.2700   18.1990 C.2   150  ARG150      0.2616
     34  O         32.6060   -1.2400   18.8100 O.2   150  ARG150     -0.2715
     35  CB        31.1660   -0.5430   15.9180 C.3   150  ARG150      0.0348
     36  CG        32.3610   -1.4430   15.6050 C.3   150  ARG150      0.0492
     37  CD        32.6750   -1.5910   14.1290 C.3   150  ARG150      0.2205
     38  NE        32.8350   -0.3000   13.4580 N.pl3 150  ARG150     -0.0865
     39  CZ        32.8250   -0.1590   12.1410 C.cat 150  ARG150      0.5346
     40  NH1       32.9700    1.0560   11.5820 N.pl3 150  ARG150      0.1354
     41  NH2       32.6870   -1.2450   11.3730 N.pl3 150  ARG150      0.1354
     42  N         32.7210    0.9270   18.2240 N.am  151  THR151     -0.1951
     43  CA        34.0020    1.1180   18.8930 C.3   151  THR151      0.1897
     44  C         33.7780    1.7800   20.2350 C.2   151  THR151      0.2313
     45  O         33.4660    2.9880   20.2860 O.2   151  THR151     -0.2863
     46  CB        34.9060    2.0070   18.0280 C.3   151  THR151      0.1794
     47  OG1       35.0940    1.3710   16.7560 O.3   151  THR151     -0.2208
     48  CG2       36.3050    2.0840   18.6310 C.3   151  THR151      0.0378
     49  N         35.3220    5.5490   21.6210 N.3   154  LYS154     -0.1245
     50  CA        34.7130    6.7420   21.0590 C.3   154  LYS154      0.1561
     51  C         33.3960    7.0500   21.7690 C.2   154  LYS154      0.2260
     52  O         33.0370    8.2060   21.9420 O.2   154  LYS154     -0.2867
     53  CB        34.4870    6.5470   19.5610 C.3   154  LYS154      0.0271
     54  CG        35.7520    6.7060   18.7410 C.3   154  LYS154      0.0035
     55  CD        35.6090    6.0570   17.3810 C.3   154  LYS154      0.0206
     56  CE        34.9390    6.9820   16.3830 C.3   154  LYS154      0.1093
     57  NZ        34.9200    6.3080   15.0500 N.3   154  LYS154     -0.1314
     58  N         28.2100   -1.8190   22.7080 N.3   173  MET173     -0.1245
     59  CA        27.1720   -2.1850   21.7460 C.3   173  MET173      0.1570
     60  C         26.5510   -3.5340   22.1240 C.2   173  MET173      0.2261
     61  O         25.3920   -3.8150   21.8080 O.2   173  MET173     -0.2867
     62  CB        27.7640   -2.2370   20.3360 C.3   173  MET173      0.0387
     63  CG        26.7820   -2.5920   19.2350 C.3   173  MET173      0.0595
     64  SD        25.6180   -1.2710   18.8240 S.3   173  MET173     -0.1393
     65  CE        26.7130    0.0220   18.3270 C.3   173  MET173      0.0692
     66  N         22.9950    6.9340   13.6380 N.3   187  ALA187     -0.1231
     67  CA        23.9420    7.9450   13.2130 C.3   187  ALA187      0.1694
     68  C         25.1900    7.2380   12.7420 C.2   187  ALA187      0.2593
     69  O         26.2700    7.7870   12.8180 O.2   187  ALA187     -0.2718
     70  CB        24.2680    8.8700   14.3460 C.3   187  ALA187      0.0304
     71  N         25.0620    6.0320   12.2880 N.am  188  THR188     -0.1939
     72  CA        26.1090    5.2810   11.6720 C.3   188  THR188      0.2028
     73  C         25.9950    5.4310   10.1420 C.2   188  THR188      0.2643
     74  O         24.9610    5.6960    9.5820 O.2   188  THR188     -0.2714
     75  CB        26.1490    3.8470   12.1430 C.3   188  THR188      0.1808
     76  OG1       25.1340    3.0110   11.6470 O.3   188  THR188     -0.2208
     77  CG2       26.2020    3.6340   13.6390 C.3   188  THR188      0.0379
     78  N         27.1050    5.2010    9.5130 N.am  189  SER189     -0.1935
     79  CA        27.2840    4.7930    8.1150 C.3   189  SER189      0.2055
     80  C         27.1090    3.3150    7.8410 C.2   189  SER189      0.2642
     81  O         26.7780    2.9640    6.6860 O.2   189  SER189     -0.2714
     82  CB        28.5430    5.3870    7.5690 C.3   189  SER189      0.2130
     83  OG        29.6610    4.8900    8.2200 O.3   189  SER189     -0.2179
     84  N         27.7480    2.5150    8.6060 N.am  190  ALA190     -0.1977
     85  CA        27.7020    1.1730    9.0390 C.3   190  ALA190      0.1597
     86  C         26.8970    0.3170    8.1260 C.2   190  ALA190      0.2287
     87  O         25.6920    0.4670    7.9970 O.2   190  ALA190     -0.2864
     88  CB        27.2010    1.0640   10.4650 C.3   190  ALA190      0.0319
     89  N         26.4920   -3.1900   15.5820 N.3   191  SER191     -0.1217
     90  CA        25.3660   -3.9830   14.9950 C.3   191  SER191      0.1889
     91  C         24.3200   -4.3100   16.0510 C.2   191  SER191      0.2288
     92  O         24.2960   -5.3990   16.6300 O.2   191  SER191     -0.2866
     93  CB        25.9070   -5.2620   14.3770 C.3   191  SER191      0.2089
     94  OG        26.8660   -5.8350   15.2450 O.3   191  SER191     -0.2183
     95  N         20.5970    9.2040    8.1740 N.3   207  GLN207     -0.1245
     96  CA        20.8530    8.9270    6.7640 C.3   207  GLN207      0.1566
     97  C         19.5870    9.1050    5.9700 C.2   207  GLN207      0.2260
     98  O         18.4720    8.8970    6.4440 O.2   207  GLN207     -0.2867
     99  CB        21.4650    7.5410    6.4800 C.3   207  GLN207      0.0367
    100  CG        22.7580    7.2060    7.2280 C.3   207  GLN207      0.0905
    101  CD        23.9950    7.9870    6.7670 C.2   207  GLN207      0.2608
    102  OE1       23.9530    8.7260    5.7690 O.2   207  GLN207     -0.2717
    103  NE2       25.1080    7.8190    7.5040 N.am  207  GLN207     -0.0878
@<TRIPOS>BOND
     1   102   101    2
     2    97    98    2
     3    97    96    1
     4    99    96    1
     5    99   100    1
     6    81    80    2
     7    96    95    1
     8   101   100    1
     9   101   103   am
    10    82    79    1
    11    82    83    1
    12    80    79    1
    13    80    84   am
    14    87    86    2
    15    79    78    1
    16    86    85    1
    17    84    85    1
    18    85    88    1
    19    78    73   am
    20    74    73    2
    21    73    72    1
    22    41    39    1
    23    40    39    1
    24    76    75    1
    25    72    75    1
    26    72    71    1
    27    39    38    2
    28    22    19    1
    29    75    77    1
    30    71    68   am
    31    68    69    2
    32    68    67    1
    33    19    18    1
    34    19    20    1
    35    18    16   am
    36    67    66    1
    37    67    70    1
    38    38    37    1
    39    16    15    1
    40    16    17    2
    41    15    14    1
    42    14    12   am
    43    37    36    1
    44    93    90    1
    45    93    94    1
    46    20    21    2
    47    11    12    1
    48    11    10    1
    49    12    13    2
    50    90    89    1
    51    90    91    1
    52    57    56    1
    53    36    35    1
    54    10     7   am
    55    35    32    1
    56    91    92    2
    57     2     1    1
    58     2     3    1
    59    56    55    1
    60    29    28    2
    61    47    46    1
    62     7     8    2
    63     7     6    1
    64     5     3   am
    65     5     6    1
    66     3     4    2
    67    55    54    1
    68    32    31    1
    69    32    33    1
    70    31    25   am
    71    28    30   am
    72    28    27    1
    73     6     9    1
    74    46    48    1
    75    46    43    1
    76    33    42   am
    77    33    34    2
    78    42    43    1
    79    65    64    1
    80    54    53    1
    81    64    63    1
    82    43    44    1
    83    25    24    1
    84    25    26    2
    85    24    27    1
    86    24    23    1
    87    63    62    1
    88    53    50    1
    89    44    45    2
    90    62    59    1
    91    50    49    1
    92    50    51    1
    93    59    60    1
    94    59    58    1
    95    51    52    2
    96    61    60    2
