@<TRIPOS>MOLECULE
tmp/1p7kD02.pdb
 97 95 0 0 0
SMALL
GASTEIGER

@<TRIPOS>ATOM
      1  N         48.6280   48.9190   65.4410 N.3     9  PRO9       -0.2116
      2  CA        49.6460   49.7870   64.8450 C.3     9  PRO9        0.1372
      3  C         49.7880   51.0880   65.6130 C.2     9  PRO9        0.2244
      4  O         48.8110   51.6260   66.1410 O.2     9  PRO9       -0.2868
      5  CB        49.1350   50.0000   63.4240 C.3     9  PRO9        0.0268
      6  CG        47.6440   49.8580   63.5720 C.3     9  PRO9        0.0207
      7  CD        47.5380   48.6620   64.4840 C.3     9  PRO9        0.0892
      8  N         51.2940   55.1250   65.6070 N.3    11  LEU11      -0.1245
      9  CA        51.6700   56.2460   64.7660 C.3    11  LEU11       0.1561
     10  C         51.9470   57.3640   65.7540 C.2    11  LEU11       0.2260
     11  O         51.0150   57.8870   66.3650 O.2    11  LEU11      -0.2867
     12  CB        50.5190   56.6120   63.8380 C.3    11  LEU11       0.0270
     13  CG        50.7330   57.8790   63.0140 C.3    11  LEU11       0.0019
     14  CD1       52.1360   57.9530   62.4310 C.3    11  LEU11       0.0001
     15  CD2       49.7080   57.8720   61.9270 C.3    11  LEU11       0.0001
     16  N         54.9710   60.7340   67.1260 N.3    13  LYS13      -0.1245
     17  CA        55.9550   61.7370   66.7180 C.3    13  LYS13       0.1561
     18  C         57.3390   61.4710   67.2750 C.2    13  LYS13       0.2260
     19  O         57.4980   60.7800   68.2910 O.2    13  LYS13      -0.2867
     20  CB        55.5270   63.1430   67.1840 C.3    13  LYS13       0.0271
     21  CG        54.4560   63.8050   66.3240 C.3    13  LYS13       0.0035
     22  CD        53.1490   63.0350   66.3410 C.3    13  LYS13       0.0206
     23  CE        52.0960   63.7000   65.4670 C.3    13  LYS13       0.1093
     24  NZ        50.8120   62.9410   65.4950 N.3    13  LYS13      -0.1314
     25  N         56.8330   59.7280   62.7840 N.3   119  SER119     -0.1217
     26  CA        56.9100   60.8160   61.8300 C.3   119  SER119      0.1889
     27  C         56.3180   62.0980   62.3880 C.2   119  SER119      0.2288
     28  O         55.4320   62.0440   63.2360 O.2   119  SER119     -0.2866
     29  CB        56.1280   60.4190   60.5700 C.3   119  SER119      0.2089
     30  OG        55.9090   61.5290   59.7160 O.3   119  SER119     -0.2183
     31  N         54.8660   64.2200   60.3380 N.3   121  ALA121     -0.1231
     32  CA        53.8270   64.6170   59.3900 C.3   121  ALA121      0.1694
     33  C         52.4080   64.5750   59.9600 C.2   121  ALA121      0.2592
     34  O         52.0790   63.7650   60.8280 O.2   121  ALA121     -0.2718
     35  CB        53.9100   63.7340   58.1100 C.3   121  ALA121      0.0304
     36  N         51.5710   65.4750   59.4660 N.am  122  LYS122     -0.1966
     37  CA        50.1850   65.5170   59.8760 C.3   122  LYS122      0.1728
     38  C         49.3970   64.8150   58.7920 C.2   122  LYS122      0.2616
     39  O         49.8370   64.7350   57.6520 O.2   122  LYS122     -0.2715
     40  CB        49.6960   66.9700   59.9840 C.3   122  LYS122      0.0311
     41  CG        50.4480   67.8060   61.0040 C.3   122  LYS122      0.0038
     42  CD        50.3080   67.2450   62.4160 C.3   122  LYS122      0.0206
     43  CE        50.8610   68.2350   63.4270 C.3   122  LYS122      0.1093
     44  NZ        50.6980   67.7390   64.8220 N.3   122  LYS122     -0.1314
     45  N         48.2400   64.2950   59.1610 N.am  123  THR123     -0.1951
     46  CA        47.3670   63.6250   58.2100 C.3   123  THR123      0.1897
     47  C         47.1990   64.5040   56.9860 C.2   123  THR123      0.2313
     48  O         46.8880   65.6970   57.1060 O.2   123  THR123     -0.2863
     49  CB        46.0160   63.3710   58.8360 C.3   123  THR123      0.1794
     50  OG1       46.1980   62.5210   59.9690 O.3   123  THR123     -0.2208
     51  CG2       45.0790   62.6680   57.8480 C.3   123  THR123      0.0378
     52  N         49.5420   61.0990   53.7890 N.3   149  PHE149     -0.1228
     53  CA        50.0610   60.6100   55.0500 C.3   149  PHE149      0.1721
     54  C         48.8880   60.4300   55.9910 C.2   149  PHE149      0.2437
     55  O         48.0080   61.2930   56.0540 O.2   149  PHE149     -0.2733
     56  CB        51.0480   61.6070   55.6760 C.3   149  PHE149      0.0547
     57  CG        51.6960   61.0790   56.9180 C.ar  149  PHE149     -0.0202
     58  CD1       52.8290   60.2630   56.8360 C.ar  149  PHE149     -0.0042
     59  CD2       51.1190   61.3010   58.1540 C.ar  149  PHE149     -0.0042
     60  CE1       53.3590   59.6760   57.9750 C.ar  149  PHE149     -0.0003
     61  CE2       51.6420   60.7170   59.3120 C.ar  149  PHE149     -0.0003
     62  CZ        52.7590   59.9050   59.2230 C.ar  149  PHE149     -0.0000
     63  N         48.8490   59.3160   56.7380 N.am  150  PRO150     -0.2718
     64  CA        49.8340   58.2240   56.7500 C.3   150  PRO150      0.1535
     65  C         49.3880   57.1390   55.7960 C.2   150  PRO150      0.2598
     66  O         48.3700   57.2930   55.0980 O.2   150  PRO150     -0.2715
     67  CB        49.7770   57.7440   58.1930 C.3   150  PRO150      0.0310
     68  CG        48.3110   57.8570   58.4880 C.3   150  PRO150      0.0237
     69  CD        47.8910   59.1710   57.8530 C.3   150  PRO150      0.0939
     70  N         50.1450   56.0460   55.7490 N.am  151  GLU151     -0.1964
     71  CA        49.7510   54.9110   54.9350 C.3   151  GLU151      0.1718
     72  C         48.5820   54.2990   55.7090 C.2   151  GLU151      0.2458
     73  O         48.4570   54.5210   56.9170 O.2   151  GLU151     -0.2730
     74  CB        50.9140   53.9190   54.8450 C.3   151  GLU151      0.0428
     75  CG        51.8730   54.2430   53.7310 C.3   151  GLU151      0.1163
     76  CD        51.5860   53.4200   52.4860 C.2   151  GLU151      0.3649
     77  OE1       52.4130   52.5140   52.2210 O.co2 151  GLU151     -0.2457
     78  OE2       50.5390   53.6470   51.7880 O.co2 151  GLU151     -0.2457
     79  N         47.7270   53.5140   55.0490 N.am  152  PRO152     -0.2727
     80  CA        47.7500   53.1380   53.6340 C.3   152  PRO152      0.1402
     81  C         46.6470   53.8280   52.8400 C.2   152  PRO152      0.2269
     82  O         45.8340   54.5660   53.4000 O.2   152  PRO152     -0.2865
     83  CB        47.4470   51.6600   53.7030 C.3   152  PRO152      0.0296
     84  CG        46.2960   51.6660   54.7330 C.3   152  PRO152      0.0237
     85  CD        46.7320   52.7040   55.7800 C.3   152  PRO152      0.0939
     86  N         41.5890   56.1280   54.1850 N.3   203  PRO203     -0.2102
     87  CA        40.8290   56.1380   55.4380 C.3   203  PRO203      0.1504
     88  C         41.2940   57.1070   56.5090 C.2   203  PRO203      0.2575
     89  O         40.4690   57.7590   57.1430 O.2   203  PRO203     -0.2718
     90  CB        40.8570   54.6760   55.8820 C.3   203  PRO203      0.0282
     91  CG        42.0230   54.0750   55.1550 C.3   203  PRO203      0.0208
     92  CD        42.0410   54.7750   53.8300 C.3   203  PRO203      0.0893
     93  N         42.6050   57.2440   56.6990 N.am  204  ALA204     -0.1980
     94  CA        43.0920   58.1400   57.7310 C.3   204  ALA204      0.1597
     95  C         42.5510   59.5650   57.5750 C.2   204  ALA204      0.2287
     96  O         42.3310   60.2490   58.5580 O.2   204  ALA204     -0.2864
     97  CB        44.6300   58.1530   57.7350 C.3   204  ALA204      0.0319
@<TRIPOS>BOND
     1    78    76   ar
     2    77    76   ar
     3    76    75    1
     4    81    82    2
     5    81    80    1
     6    80    83    1
     7    80    79    1
     8    83    84    1
     9    75    74    1
    10    52    53    1
    11    92    86    1
    12    92    91    1
    13    86    87    1
    14    84    85    1
    15    74    71    1
    16    71    72    1
    17    71    70    1
    18    79    72   am
    19    79    85    1
    20    53    56    1
    21    53    54    1
    22    66    65    2
    23    91    90    1
    24    87    90    1
    25    87    88    1
    26    56    57    1
    27    72    73    2
    28    70    65   am
    29    65    64    1
    30    54    55    2
    31    54    63   am
    32    88    93   am
    33    88    89    2
    34    93    94    1
    35    63    64    1
    36    63    69    1
    37    64    67    1
    38    58    57   ar
    39    58    60   ar
    40    57    59   ar
    41    47    48    2
    42    47    46    1
    43    95    94    1
    44    95    96    2
    45    39    38    2
    46    94    97    1
    47    51    49    1
    48    69    68    1
    49    60    62   ar
    50    35    32    1
    51    59    61   ar
    52    67    68    1
    53    46    49    1
    54    46    45    1
    55    38    45   am
    56    38    37    1
    57    49    50    1
    58    62    61   ar
    59    32    33    1
    60    32    31    1
    61    36    37    1
    62    36    33   am
    63    30    29    1
    64    37    40    1
    65    33    34    2
    66    40    41    1
    67    29    26    1
    68    41    42    1
    69    26    27    1
    70    26    25    1
    71    15    13    1
    72    27    28    2
    73    42    43    1
    74    14    13    1
    75    13    12    1
    76     5     6    1
    77     5     2    1
    78    43    44    1
    79     6     7    1
    80    12     9    1
    81     7     1    1
    82     9     8    1
    83     9    10    1
    84     2     1    1
    85     2     3    1
    86    23    24    1
    87    23    22    1
    88     3     4    2
    89    10    11    2
    90    21    22    1
    91    21    20    1
    92    17    16    1
    93    17    20    1
    94    17    18    1
    95    18    19    2
