@<TRIPOS>MOLECULE
tmp/1p7kA01.pdb
 81 77 0 0 0
SMALL
GASTEIGER

@<TRIPOS>ATOM
      1  N         49.1800   21.0070   22.4670 N.3    22  THR22      -0.1218
      2  CA        49.3450   22.0470   23.4620 C.3    22  THR22       0.1862
      3  C         48.1810   22.1070   24.4340 C.2    22  THR22       0.2287
      4  O         47.0610   21.7220   24.1050 O.2    22  THR22      -0.2866
      5  CB        49.5280   23.4190   22.7630 C.3    22  THR22       0.1770
      6  OG1       48.2860   23.8330   22.1850 O.3    22  THR22      -0.2211
      7  CG2       50.5410   23.2920   21.6330 C.3    22  THR22       0.0375
      8  N         54.2750   23.4430   37.4960 N.3    31  SER31      -0.1217
      9  CA        54.6270   22.3090   36.6480 C.3    31  SER31       0.1889
     10  C         53.7510   21.1050   36.9190 C.2    31  SER31       0.2288
     11  O         54.1180   19.9980   36.5420 O.2    31  SER31      -0.2866
     12  CB        56.0860   21.9100   36.8600 C.3    31  SER31       0.2089
     13  OG        56.9500   22.9630   36.4970 O.3    31  SER31      -0.2183
     14  N         54.2120   16.0170   36.2650 N.3    50  ASN50      -0.1225
     15  CA        55.1170   17.1230   36.6170 C.3    50  ASN50       0.1785
     16  C         55.6020   17.8250   35.3310 C.2    50  ASN50       0.2597
     17  O         56.7610   18.2720   35.2310 O.2    50  ASN50      -0.2718
     18  CB        56.3110   16.6030   37.4330 C.3    50  ASN50       0.1169
     19  CG        55.9480   16.3240   38.8990 C.2    50  ASN50       0.2627
     20  OD1       54.9940   16.8990   39.4400 O.2    50  ASN50      -0.2716
     21  ND2       56.7300   15.4630   39.5530 N.am   50  ASN50      -0.0877
     22  N         54.6910   17.9180   34.3570 N.am   51  ALA51      -0.1966
     23  CA        54.9030   18.5580   33.0570 C.3    51  ALA51       0.1728
     24  C         55.9520   17.9680   32.1360 C.2    51  ALA51       0.2616
     25  O         55.7760   17.9860   30.9220 O.2    51  ALA51      -0.2715
     26  CB        55.1860   20.0700   33.2470 C.3    51  ALA51       0.0334
     27  N         57.0190   17.4060   32.6980 N.am   52  LYS52      -0.1977
     28  CA        58.0920   16.8840   31.8680 C.3    52  LYS52       0.1596
     29  C         58.6780   15.5220   32.2100 C.2    52  LYS52       0.2287
     30  O         59.5860   15.0620   31.5270 O.2    52  LYS52      -0.2864
     31  CB        59.2380   17.9010   31.8710 C.3    52  LYS52       0.0298
     32  CG        59.7700   18.1850   33.2680 C.3    52  LYS52       0.0038
     33  CD        61.0260   19.0440   33.2800 C.3    52  LYS52       0.0206
     34  CE        62.3020   18.1800   33.1990 C.3    52  LYS52       0.1093
     35  NZ        62.4880   17.1970   34.3300 N.3    52  LYS52      -0.1314
     36  N         57.4890   16.2280   27.4020 N.3    64  GLY64      -0.1210
     37  CA        56.5690   17.2470   27.8400 C.3    64  GLY64       0.1956
     38  C         57.3720   18.4820   28.1930 C.2    64  GLY64       0.2613
     39  O         58.5110   18.3650   28.6450 O.2    64  GLY64      -0.2717
     40  N         56.7920   19.6540   27.9820 N.am   65  SER65      -0.1938
     41  CA        57.4780   20.8930   28.2990 C.3    65  SER65       0.2055
     42  C         56.4860   21.9310   28.8030 C.2    65  SER65       0.2644
     43  O         55.2640   21.7780   28.6420 O.2    65  SER65      -0.2714
     44  CB        58.2090   21.4270   27.0580 C.3    65  SER65       0.2130
     45  OG        57.3010   21.9120   26.0910 O.3    65  SER65      -0.2179
     46  N         57.0130   22.9780   29.4430 N.am   66  GLY66      -0.1939
     47  CA        56.1620   24.0410   29.9430 C.3    66  GLY66       0.2014
     48  C         56.0500   24.1610   31.4410 C.2    66  GLY66       0.2639
     49  O         56.2580   23.2050   32.1760 O.2    66  GLY66      -0.2714
     50  N         55.7140   25.3530   31.9200 N.am   67  SER67      -0.1949
     51  CA        55.5400   25.5640   33.3550 C.3    67  SER67       0.1924
     52  C         54.8900   26.9240   33.5440 C.2    67  SER67       0.2314
     53  O         55.4330   27.9460   33.1180 O.2    67  SER67      -0.2863
     54  CB        56.8820   25.4900   34.0900 C.3    67  SER67       0.2116
     55  OG        56.6790   25.4230   35.4950 O.3    67  SER67      -0.2180
     56  N         51.1920   27.4940   30.0370 N.3    70  GLN70      -0.1231
     57  CA        51.3080   26.9410   28.6830 C.3    70  GLN70       0.1698
     58  C         52.1790   25.6880   28.6410 C.2    70  GLN70       0.2592
     59  O         53.3340   25.7000   29.0740 O.2    70  GLN70      -0.2718
     60  CB        51.8910   27.9900   27.7330 C.3    70  GLN70       0.0381
     61  CG        51.0160   29.2150   27.5390 C.3    70  GLN70       0.0905
     62  CD        49.8830   28.9720   26.5610 C.2    70  GLN70       0.2608
     63  OE1       50.0130   28.1680   25.6250 O.2    70  GLN70      -0.2717
     64  NE2       48.7660   29.6810   26.7550 N.am   70  GLN70      -0.0878
     65  N         51.6290   24.6140   28.0860 N.am   71  PHE71      -0.1962
     66  CA        52.3600   23.3510   28.0370 C.3    71  PHE71       0.1771
     67  C         52.2280   22.6530   26.7000 C.2    71  PHE71       0.2620
     68  O         51.3150   22.9310   25.9370 O.2    71  PHE71      -0.2715
     69  CB        51.8230   22.4060   29.1160 C.3    71  PHE71       0.0574
     70  CG        51.7860   23.0080   30.4880 C.ar   71  PHE71      -0.0200
     71  CD1       50.7470   23.8480   30.8650 C.ar   71  PHE71      -0.0042
     72  CD2       52.8110   22.7540   31.3910 C.ar   71  PHE71      -0.0042
     73  CE1       50.7290   24.4370   32.1340 C.ar   71  PHE71      -0.0003
     74  CE2       52.8040   23.3380   32.6620 C.ar   71  PHE71      -0.0003
     75  CZ        51.7570   24.1810   33.0250 C.ar   71  PHE71      -0.0000
     76  N         53.1330   21.7230   26.4270 N.am   72  SER72      -0.1950
     77  CA        53.0510   20.9920   25.1880 C.3    72  SER72       0.1924
     78  C         53.6000   19.5850   25.3160 C.2    72  SER72       0.2314
     79  O         54.5180   19.3150   26.1040 O.2    72  SER72      -0.2863
     80  CB        53.8170   21.7130   24.0870 C.3    72  SER72       0.2116
     81  OG        55.2020   21.5100   24.2530 O.3    72  SER72      -0.2180
@<TRIPOS>BOND
     1     7     5    1
     2     6     5    1
     3     1     2    1
     4     5     2    1
     5     2     3    1
     6    80    81    1
     7    80    77    1
     8     4     3    2
     9    77    78    1
    10    77    76    1
    11    78    79    2
    12    63    62    2
    13    68    67    2
    14    45    44    1
    15    76    67   am
    16    62    64   am
    17    62    61    1
    18    67    66    1
    19    44    41    1
    20    36    37    1
    21    61    60    1
    22    60    57    1
    23    37    38    1
    24    40    38   am
    25    40    41    1
    26    66    65    1
    27    66    69    1
    28    65    58   am
    29    38    39    2
    30    41    42    1
    31    58    57    1
    32    58    59    2
    33    43    42    2
    34    57    56    1
    35    42    46   am
    36    69    70    1
    37    46    47    1
    38    47    48    1
    39    70    71   ar
    40    70    72   ar
    41    71    73   ar
    42    25    24    2
    43    72    74   ar
    44    48    50   am
    45    48    49    2
    46    30    29    2
    47    28    31    1
    48    28    29    1
    49    28    27    1
    50    31    32    1
    51    50    51    1
    52    73    75   ar
    53    24    27   am
    54    24    23    1
    55    74    75   ar
    56    23    26    1
    57    23    22    1
    58    53    52    2
    59    34    33    1
    60    34    35    1
    61    32    33    1
    62    51    52    1
    63    51    54    1
    64    54    55    1
    65    22    16   am
    66    17    16    2
    67    16    15    1
    68    14    15    1
    69    13    12    1
    70    11    10    2
    71    15    18    1
    72     9    12    1
    73     9    10    1
    74     9     8    1
    75    18    19    1
    76    19    20    2
    77    19    21   am
