@<TRIPOS>MOLECULE
tmp/1p7kB01.pdb
 121 119 0 0 0
SMALL
GASTEIGER

@<TRIPOS>ATOM
      1  N         46.6700    1.1050   51.3030 N.3    30  THR30      -0.1203
      2  CA        46.6720    2.3710   52.0080 C.3    30  THR30       0.1994
      3  C         47.7670    3.3600   51.6430 C.2    30  THR30       0.2619
      4  O         47.7590    4.4830   52.1260 O.2    30  THR30      -0.2717
      5  CB        46.6960    2.1270   53.5480 C.3    30  THR30       0.1784
      6  OG1       47.8070    1.2960   53.8820 O.3    30  THR30      -0.2211
      7  CG2       45.4250    1.4190   53.9870 C.3    30  THR30       0.0376
      8  N         48.7130    2.9560   50.7910 N.am   31  SER31      -0.1937
      9  CA        49.8010    3.8470   50.4220 C.3    31  SER31       0.2055
     10  C         49.4840    4.7650   49.2590 C.2    31  SER31       0.2643
     11  O         50.2880    5.6320   48.9190 O.2    31  SER31      -0.2714
     12  CB        51.0380    3.0240   50.0670 C.3    31  SER31       0.2130
     13  OG        51.5090    2.3650   51.2310 O.3    31  SER31      -0.2179
     14  N         48.3060    4.5760   48.6590 N.am   32  TYR32      -0.1959
     15  CA        47.8850    5.3840   47.5020 C.3    32  TYR32       0.1771
     16  C         46.4440    5.8820   47.5550 C.2    32  TYR32       0.2619
     17  O         45.5620    5.1570   47.9890 O.2    32  TYR32      -0.2715
     18  CB        47.9710    4.5590   46.2270 C.3    32  TYR32       0.0574
     19  CG        49.3410    4.0090   45.9310 C.ar   32  TYR32      -0.0198
     20  CD1       49.8550    2.9600   46.6630 C.ar   32  TYR32      -0.0009
     21  CD2       50.1010    4.5310   44.8920 C.ar   32  TYR32      -0.0009
     22  CE1       51.1100    2.4230   46.3770 C.ar   32  TYR32       0.0417
     23  CE2       51.3540    4.0110   44.5860 C.ar   32  TYR32       0.0417
     24  CZ        51.8510    2.9580   45.3330 C.ar   32  TYR32       0.1957
     25  OH        53.0900    2.4330   45.0230 O.3    32  TYR32      -0.2866
     26  N         46.2010    7.0800   47.0370 N.am   33  VAL33      -0.1977
     27  CA        44.8270    7.5940   47.0060 C.3    33  VAL33       0.1596
     28  C         44.1090    6.9300   45.8370 C.2    33  VAL33       0.2287
     29  O         44.7600    6.4860   44.8770 O.2    33  VAL33      -0.2864
     30  CB        44.7620    9.1440   46.8200 C.3    33  VAL33       0.0276
     31  CG1       45.5690    9.8500   47.9170 C.3    33  VAL33       0.0022
     32  CG2       45.2380    9.5460   45.4420 C.3    33  VAL33       0.0022
     33  N         38.2340   11.8550   45.1690 N.3    50  TYR50      -0.1241
     34  CA        39.1570   10.8000   45.5570 C.3    50  TYR50       0.1605
     35  C         39.0410   10.5200   47.0500 C.2    50  TYR50       0.2264
     36  O         38.4530   11.3120   47.8140 O.2    50  TYR50      -0.2867
     37  CB        40.6030   11.2010   45.2280 C.3    50  TYR50       0.0534
     38  CG        41.2620   12.1410   46.2340 C.ar   50  TYR50      -0.0201
     39  CD1       41.7930   11.6540   47.4400 C.ar   50  TYR50      -0.0009
     40  CD2       41.3440   13.5110   45.9900 C.ar   50  TYR50      -0.0009
     41  CE1       42.3760   12.5090   48.3700 C.ar   50  TYR50       0.0417
     42  CE2       41.9340   14.3710   46.9100 C.ar   50  TYR50       0.0417
     43  CZ        42.4420   13.8700   48.0990 C.ar   50  TYR50       0.1957
     44  OH        42.9730   14.7420   49.0290 O.3    50  TYR50      -0.2866
     45  N         41.5100    8.8770   50.3310 N.3    52  ASN52      -0.1240
     46  CA        42.8410    8.4550   50.7510 C.3    52  ASN52       0.1653
     47  C         42.5020    7.3400   51.7610 C.2    52  ASN52       0.2266
     48  O         42.0480    7.6210   52.8890 O.2    52  ASN52      -0.2867
     49  CB        43.5480    9.6310   51.4380 C.3    52  ASN52       0.1155
     50  CG        44.9250    9.2640   51.9200 C.2    52  ASN52       0.2627
     51  OD1       45.2320    8.0840   52.0840 O.2    52  ASN52      -0.2716
     52  ND2       45.7690   10.2730   52.1530 N.am   52  ASN52      -0.0877
     53  N         44.2190    5.6870   53.6350 N.3    54  TYR54      -0.1227
     54  CA        45.0180    5.6920   54.8710 C.3    54  TYR54       0.1736
     55  C         44.3180    6.4210   56.0300 C.2    54  TYR54       0.2595
     56  O         44.3630    5.9810   57.1870 O.2    54  TYR54      -0.2718
     57  CB        46.3550    6.3710   54.5970 C.3    54  TYR54       0.0548
     58  CG        47.2630    6.3540   55.7960 C.ar   54  TYR54      -0.0200
     59  CD1       47.9740    5.2130   56.1280 C.ar   54  TYR54      -0.0009
     60  CD2       47.3680    7.4600   56.6150 C.ar   54  TYR54      -0.0009
     61  CE1       48.7830    5.1790   57.2700 C.ar   54  TYR54       0.0417
     62  CE2       48.1700    7.4370   57.7580 C.ar   54  TYR54       0.0417
     63  CZ        48.8680    6.3000   58.0720 C.ar   54  TYR54       0.1957
     64  OH        49.6760    6.2890   59.1910 O.3    54  TYR54      -0.2866
     65  N         43.6770    7.5350   55.7130 N.am   55  ASN55      -0.1974
     66  CA        43.0160    8.3550   56.7300 C.3    55  ASN55       0.1688
     67  C         41.5680    8.7210   56.3910 C.2    55  ASN55       0.2292
     68  O         41.0070    9.6090   57.0140 O.2    55  ASN55      -0.2864
     69  CB        43.8260    9.6430   56.9390 C.3    55  ASN55       0.1181
     70  CG        44.0090   10.4470   55.6500 C.2    55  ASN55       0.2629
     71  OD1       43.2500   10.2910   54.6840 O.2    55  ASN55      -0.2716
     72  ND2       45.0180   11.3280   55.6340 N.am   55  ASN55      -0.0877
     73  N         40.4000   10.5070   54.1830 N.3    57  GLY57      -0.1225
     74  CA        40.1980   11.8590   53.6970 C.3    57  GLY57       0.1811
     75  C         39.6370   11.8290   52.2780 C.2    57  GLY57       0.2280
     76  O         40.0750   11.0170   51.4470 O.2    57  GLY57      -0.2866
     77  N         37.8670   14.2990   48.8270 N.3    59  LYS59      -0.1245
     78  CA        37.7320   15.5930   48.1740 C.3    59  LYS59       0.1561
     79  C         36.8040   15.2700   47.0240 C.2    59  LYS59       0.2260
     80  O         36.9840   14.2450   46.3580 O.2    59  LYS59      -0.2867
     81  CB        39.0590   16.1070   47.6170 C.3    59  LYS59       0.0271
     82  CG        40.0960   16.4890   48.6740 C.3    59  LYS59       0.0035
     83  CD        39.9760   17.9340   49.1030 C.3    59  LYS59       0.0206
     84  CE        41.0330   18.2630   50.1480 C.3    59  LYS59       0.1093
     85  NZ        42.3890   17.7780   49.7230 N.3    59  LYS59      -0.1314
     86  N         52.2730    7.3900   43.5750 N.3   101  TYR101     -0.1241
     87  CA        52.8640    7.3540   44.9110 C.3   101  TYR101      0.1605
     88  C         53.2320    8.7540   45.4190 C.2   101  TYR101      0.2264
     89  O         52.8100    9.1680   46.5040 O.2   101  TYR101     -0.2867
     90  CB        54.1100    6.4550   44.8620 C.3   101  TYR101      0.0534
     91  CG        54.6880    6.1050   46.2280 C.ar  101  TYR101     -0.0201
     92  CD1       54.1180    5.0990   47.0140 C.ar  101  TYR101     -0.0009
     93  CD2       55.8380    6.7370   46.6950 C.ar  101  TYR101     -0.0009
     94  CE1       54.7000    4.7150   48.2440 C.ar  101  TYR101      0.0417
     95  CE2       56.4250    6.3630   47.9320 C.ar  101  TYR101      0.0417
     96  CZ        55.8470    5.3530   48.6810 C.ar  101  TYR101      0.1957
     97  OH        56.4280    4.9330   49.8580 O.3   101  TYR101     -0.2866
     98  N         50.4090   12.2880   43.8080 N.3   104  TYR104     -0.1227
     99  CA        49.1550   11.5810   44.0320 C.3   104  TYR104      0.1736
    100  C         47.9120   12.0880   43.3100 C.2   104  TYR104      0.2595
    101  O         46.8740   11.4400   43.3820 O.2   104  TYR104     -0.2718
    102  CB        48.9160   11.4660   45.5370 C.3   104  TYR104      0.0548
    103  CG        49.0580   12.7780   46.2620 C.ar  104  TYR104     -0.0200
    104  CD1       48.0030   13.6680   46.3290 C.ar  104  TYR104     -0.0009
    105  CD2       50.2540   13.1170   46.9070 C.ar  104  TYR104     -0.0009
    106  CE1       48.1180   14.8740   47.0300 C.ar  104  TYR104      0.0417
    107  CE2       50.3770   14.3190   47.6090 C.ar  104  TYR104      0.0417
    108  CZ        49.3110   15.1860   47.6660 C.ar  104  TYR104      0.1957
    109  OH        49.4240   16.3730   48.3510 O.3   104  TYR104     -0.2866
    110  N         48.0160   13.2460   42.6410 N.am  105  TYR105     -0.1976
    111  CA        46.9260   13.8090   41.8390 C.3   105  TYR105      0.1639
    112  C         47.1260   13.4490   40.3550 C.2   105  TYR105      0.2290
    113  O         46.2920   13.7520   39.5120 O.2   105  TYR105     -0.2864
    114  CB        46.8220   15.3310   42.0200 C.3   105  TYR105      0.0560
    115  CG        46.1270   15.7370   43.3140 C.ar  105  TYR105     -0.0198
    116  CD1       46.1180   17.0680   43.7270 C.ar  105  TYR105     -0.0009
    117  CD2       45.4990   14.7890   44.1340 C.ar  105  TYR105     -0.0009
    118  CE1       45.5130   17.4490   44.9170 C.ar  105  TYR105      0.0417
    119  CE2       44.8800   15.1750   45.3500 C.ar  105  TYR105      0.0417
    120  CZ        44.9000   16.5150   45.7250 C.ar  105  TYR105      0.1957
    121  OH        44.3120   16.9260   46.9220 O.3   105  TYR105     -0.2866
@<TRIPOS>BOND
     1   113   112    2
     2   112   111    1
     3   111   114    1
     4   111   110    1
     5   114   115    1
     6   110   100   am
     7   100   101    2
     8   100    99    1
     9   115   116   ar
    10   115   117   ar
    11    86    87    1
    12   116   118   ar
    13    98    99    1
    14    99   102    1
    15   117   119   ar
    16    23    21   ar
    17    23    24   ar
    18    90    87    1
    19    90    91    1
    20    29    28    2
    21    21    19   ar
    22    87    88    1
    23   118   120   ar
    24    25    24    1
    25    33    34    1
    26    37    34    1
    27    37    38    1
    28    24    22   ar
    29   119   120   ar
    30    88    89    2
    31    32    30    1
    32   102   103    1
    33    34    35    1
    34   120   121    1
    35    28    27    1
    36    19    18    1
    37    19    20   ar
    38    40    38   ar
    39    40    42   ar
    40    18    15    1
    41    91    93   ar
    42    91    92   ar
    43    38    39   ar
    44   103   104   ar
    45   103   105   ar
    46   104   106   ar
    47    80    79    2
    48    22    20   ar
    49    93    95   ar
    50    30    27    1
    51    30    31    1
    52   105   107   ar
    53    42    43   ar
    54    27    26    1
    55    92    94   ar
    56    79    78    1
    57   106   108   ar
    58    26    16   am
    59    35    36    2
    60    39    41   ar
    61    15    16    1
    62    15    14    1
    63    16    17    2
    64   107   108   ar
    65    81    78    1
    66    81    82    1
    67   108   109    1
    68    95    96   ar
    69    43    41   ar
    70    43    44    1
    71    78    77    1
    72    94    96   ar
    73    14    10   am
    74    82    83    1
    75    96    97    1
    76    11    10    2
    77    83    84    1
    78    10     9    1
    79    85    84    1
    80    12     9    1
    81    12    13    1
    82    45    46    1
    83     9     8    1
    84    46    49    1
    85    46    47    1
    86     8     3   am
    87     1     2    1
    88    49    50    1
    89    76    75    2
    90     3     2    1
    91     3     4    2
    92    47    48    2
    93    50    51    2
    94    50    52   am
    95     2     5    1
    96    75    74    1
    97     5     6    1
    98     5     7    1
    99    53    54    1
   100    74    73    1
   101    57    54    1
   102    57    58    1
   103    71    70    2
   104    54    55    1
   105    72    70   am
   106    70    69    1
   107    65    55   am
   108    65    66    1
   109    58    59   ar
   110    58    60   ar
   111    55    56    2
   112    59    61   ar
   113    67    66    1
   114    67    68    2
   115    60    62   ar
   116    66    69    1
   117    61    63   ar
   118    62    63   ar
   119    63    64    1
