@<TRIPOS>MOLECULE
tmp/1p7lB01.pdb
 75 67 0 0 0
SMALL
GASTEIGER

@<TRIPOS>ATOM
      1  N         -7.0920    5.6700  -12.0070 N.3    40  ALA40      -0.1245
      2  CA        -6.5460    6.7480  -11.1810 C.3    40  ALA40       0.1562
      3  C         -7.5700    6.8870  -10.0700 C.2    40  ALA40       0.2260
      4  O         -8.3990    7.8000  -10.0750 O.2    40  ALA40      -0.2867
      5  CB        -6.4640    8.0300  -11.9810 C.3    40  ALA40       0.0290
      6  N        -10.7180    8.9670  -11.5630 N.3    55  GLU55      -0.1245
      7  CA       -11.0700    8.6820  -12.9510 C.3    55  GLU55       0.1567
      8  C        -10.6050    7.3130  -13.3810 C.2    55  GLU55       0.2260
      9  O         -9.4150    7.0020  -13.3360 O.2    55  GLU55      -0.2867
     10  CB       -10.4700    9.7310  -13.8850 C.3    55  GLU55       0.0388
     11  CG        -9.1360   10.2540  -13.4250 C.3    55  GLU55       0.1160
     12  CD        -9.2640   11.3090  -12.3340 C.2    55  GLU55       0.3649
     13  OE1      -10.3620   11.8810  -12.1790 O.co2  55  GLU55      -0.2457
     14  OE2       -8.2650   11.5650  -11.6280 O.co2  55  GLU55      -0.2457
     15  N        -11.3030    8.7790  -17.4410 N.3    98  GLN98      -0.1231
     16  CA       -10.0930    9.5330  -17.7570 C.3    98  GLN98       0.1698
     17  C        -10.3110   10.5240  -18.8870 C.2    98  GLN98       0.2592
     18  O        -10.9480   10.2150  -19.8950 O.2    98  GLN98      -0.2718
     19  CB        -8.9560    8.6030  -18.1480 C.3    98  GLN98       0.0381
     20  CG        -7.6770    9.3370  -18.5080 C.3    98  GLN98       0.0905
     21  CD        -6.6440    8.4190  -19.1270 C.2    98  GLN98       0.2608
     22  OE1       -6.8570    7.8610  -20.2130 O.2    98  GLN98      -0.2717
     23  NE2       -5.5120    8.2490  -18.4360 N.am   98  GLN98      -0.0878
     24  N         -9.7700   11.7210  -18.7140 N.am   99  SER99      -0.1952
     25  CA        -9.9000   12.7380  -19.7300 C.3    99  SER99       0.1924
     26  C         -9.2390   12.2940  -21.0360 C.2    99  SER99       0.2314
     27  O         -8.0900   11.8650  -21.0490 O.2    99  SER99      -0.2863
     28  CB        -9.2550   14.0370  -19.2440 C.3    99  SER99       0.2116
     29  OG        -8.4890   14.6500  -20.2730 O.3    99  SER99      -0.2180
     30  N         -5.8180   13.7960  -21.9010 N.3   102  ILE102     -0.1245
     31  CA        -4.6200   13.1690  -21.3710 C.3   102  ILE102      0.1561
     32  C         -4.3120   11.9210  -22.1880 C.2   102  ILE102      0.2260
     33  O         -3.1750   11.7010  -22.6060 O.2   102  ILE102     -0.2867
     34  CB        -4.8000   12.7500  -19.8950 C.3   102  ILE102      0.0252
     35  CG1       -4.9970   13.9820  -19.0180 C.3   102  ILE102      0.0019
     36  CG2       -3.5790   11.9930  -19.4180 C.3   102  ILE102      0.0019
     37  CD1       -5.1110   13.6690  -17.5440 C.3   102  ILE102      0.0001
     38  N          2.2590    8.9750  -18.3890 N.3   117  GLY117     -0.1210
     39  CA         0.9540    9.3730  -17.9080 C.3   117  GLY117      0.1956
     40  C          0.9020   10.7960  -17.4090 C.2   117  GLY117      0.2611
     41  O         -0.1680   11.3990  -17.3650 O.2   117  GLY117     -0.2717
     42  N          2.0580   11.3450  -17.0530 N.am  118  ASP118     -0.1973
     43  CA         2.1090   12.7000  -16.5210 C.3   118  ASP118      0.1709
     44  C          3.5510   13.1650  -16.4630 C.2   118  ASP118      0.2293
     45  O          4.4600   12.4220  -16.8240 O.2   118  ASP118     -0.2864
     46  CB         1.5120   12.6860  -15.1100 C.3   118  ASP118      0.1436
     47  CG         1.2430   14.0710  -14.5600 C.2   118  ASP118      0.3671
     48  OD1        1.4280   15.0510  -15.3080 O.co2 118  ASP118     -0.2456
     49  OD2        0.8430   14.1740  -13.3740 O.co2 118  ASP118     -0.2456
     50  N         -3.1700    3.7910   -8.9150 N.3   265  LYS265     -0.1245
     51  CA        -2.8570    4.0110  -10.3230 C.3   265  LYS265      0.1561
     52  C         -2.2790    2.8200  -11.0710 C.2   265  LYS265      0.2260
     53  O         -1.5010    2.0370  -10.5180 O.2   265  LYS265     -0.2867
     54  CB        -1.8870    5.1730  -10.4740 C.3   265  LYS265      0.0271
     55  CG        -1.6680    5.9870   -9.2290 C.3   265  LYS265      0.0035
     56  CD        -1.0350    7.3110   -9.6190 C.3   265  LYS265      0.0206
     57  CE        -0.2440    7.8880   -8.4820 C.3   265  LYS265      0.1093
     58  NZ        -0.3820    9.3470   -8.5310 N.3   265  LYS265     -0.1314
     59  N          1.1590    5.0020  -15.2840 N.3   269  LYS269     -0.1245
     60  CA         1.4210    6.1660  -14.4490 C.3   269  LYS269      0.1561
     61  C          2.8570    6.0790  -13.9480 C.2   269  LYS269      0.2260
     62  O          3.1660    5.3040  -13.0400 O.2   269  LYS269     -0.2867
     63  CB         0.4410    6.2140  -13.2600 C.3   269  LYS269      0.0271
     64  CG        -0.9320    6.8190  -13.5810 C.3   269  LYS269      0.0035
     65  CD        -1.9100    5.7700  -14.1340 C.3   269  LYS269      0.0206
     66  CE        -3.3350    6.3270  -14.2320 C.3   269  LYS269      0.1093
     67  NZ        -3.6040    7.0420  -15.5330 N.3   269  LYS269     -0.1314
     68  N          4.4510   14.5890  -19.6450 N.3   302  ILE302     -0.1245
     69  CA         3.2030   13.9900  -20.0910 C.3   302  ILE302      0.1561
     70  C          3.1210   13.8120  -21.5980 C.2   302  ILE302      0.2260
     71  O          3.5520   14.6830  -22.3460 O.2   302  ILE302     -0.2867
     72  CB         2.0130   14.8340  -19.6320 C.3   302  ILE302      0.0252
     73  CG1        0.7310   14.0280  -19.7600 C.3   302  ILE302      0.0019
     74  CG2        1.9320   16.1250  -20.4340 C.3   302  ILE302      0.0019
     75  CD1       -0.4440   14.7280  -19.1210 C.3   302  ILE302      0.0001
@<TRIPOS>BOND
     1    33    32    2
     2    71    70    2
     3    32    31    1
     4    30    31    1
     5    70    69    1
     6    31    34    1
     7    27    26    2
     8    26    25    1
     9    74    72    1
    10    29    28    1
    11    22    21    2
    12    69    68    1
    13    69    72    1
    14    34    36    1
    15    34    35    1
    16    18    17    2
    17    73    72    1
    18    73    75    1
    19    25    28    1
    20    25    24    1
    21    21    20    1
    22    21    23   am
    23    35    37    1
    24    17    24   am
    25    17    16    1
    26    20    19    1
    27    38    39    1
    28    19    16    1
    29    39    40    1
    30    16    15    1
    31    40    41    2
    32    40    42   am
    33    42    43    1
    34    45    44    2
    35    43    44    1
    36    43    46    1
    37    67    66    1
    38    48    47   ar
    39    59    60    1
    40    46    47    1
    41    47    49   ar
    42    60    61    1
    43    60    63    1
    44    66    65    1
    45    65    64    1
    46    61    62    2
    47    10    11    1
    48    10     7    1
    49    64    63    1
    50    11    12    1
    51     8     9    2
    52     8     7    1
    53     7     6    1
    54    12    13   ar
    55    12    14   ar
    56     1     2    1
    57     5     2    1
    58     2     3    1
    59    52    53    2
    60    52    51    1
    61    54    51    1
    62    54    55    1
    63    51    50    1
    64     4     3    2
    65    56    55    1
    66    56    57    1
    67    58    57    1
