@<TRIPOS>MOLECULE
tmp/1p7lB02.pdb
 156 151 0 0 0
SMALL
GASTEIGER

@<TRIPOS>ATOM
      1  N          9.9400    5.9250   10.1960 N.3     8  GLU8       -0.1245
      2  CA         8.6790    5.5160   10.8130 C.3     8  GLU8        0.1567
      3  C          7.8390    4.6680    9.8840 C.2     8  GLU8        0.2260
      4  O          8.0470    4.6590    8.6670 O.2     8  GLU8       -0.2867
      5  CB         7.8500    6.7380   11.1740 C.3     8  GLU8        0.0388
      6  CG         7.5280    7.5400    9.9430 C.3     8  GLU8        0.1160
      7  CD         6.3130    8.3970   10.1050 C.2     8  GLU8        0.3649
      8  OE1        5.5960    8.2340   11.1160 O.co2   8  GLU8       -0.2457
      9  OE2        6.0850    9.2390    9.2110 O.co2   8  GLU8       -0.2457
     10  N         -3.9680    1.8140    9.7860 N.3    14  HIS14      -0.1227
     11  CA        -3.8600    3.2640    9.7810 C.3    14  HIS14       0.1737
     12  C         -4.7650    3.8700    8.6870 C.2    14  HIS14       0.2438
     13  O         -4.7400    3.4230    7.5380 O.2    14  HIS14      -0.2733
     14  CB        -2.4010    3.6570    9.5580 C.3    14  HIS14       0.0758
     15  CG        -2.1730    5.1300    9.5710 C.ar   14  HIS14       0.0818
     16  ND1       -2.3990    5.9240    8.4690 N.ar   14  HIS14      -0.2268
     17  CD2       -1.7530    5.9590   10.5530 C.ar   14  HIS14       0.1154
     18  CE1       -2.1270    7.1790    8.7700 C.ar   14  HIS14       0.1986
     19  NE2       -1.7320    7.2270   10.0280 N.ar   14  HIS14      -0.2212
     20  N         -5.5580    4.9130    9.0240 N.am   15  PRO15      -0.2718
     21  CA        -6.4740    5.5710    8.0760 C.3    15  PRO15       0.1535
     22  C         -5.9050    5.7730    6.6770 C.2    15  PRO15       0.2598
     23  O         -6.5020    5.3550    5.6890 O.2    15  PRO15      -0.2715
     24  CB        -6.8090    6.8990    8.7540 C.3    15  PRO15       0.0310
     25  CG        -6.6990    6.6010   10.2020 C.3    15  PRO15       0.0237
     26  CD        -5.5960    5.5590   10.3470 C.3    15  PRO15       0.0939
     27  N         -4.7470    6.4120    6.5990 N.am   16  ASP16      -0.1972
     28  CA        -4.1020    6.6590    5.3220 C.3    16  ASP16       0.1709
     29  C         -3.8830    5.3530    4.5890 C.2    16  ASP16       0.2293
     30  O         -4.2390    5.2260    3.4190 O.2    16  ASP16      -0.2864
     31  CB        -2.7630    7.3540    5.5310 C.3    16  ASP16       0.1436
     32  CG        -2.9050    8.8430    5.7550 C.2    16  ASP16       0.3671
     33  OD1       -3.9800    9.4060    5.4590 O.co2  16  ASP16      -0.2456
     34  OD2       -1.9290    9.4520    6.2320 O.co2  16  ASP16      -0.2456
     35  N         -5.4930    0.1110   14.2120 N.3   163  ASP163     -0.1225
     36  CA        -4.6770    1.3180   14.1430 C.3   163  ASP163      0.1805
     37  C         -3.4000    1.2880   14.9740 C.2   163  ASP163      0.2598
     38  O         -3.4220    0.9990   16.1720 O.2   163  ASP163     -0.2718
     39  CB        -5.5140    2.5280   14.5460 C.3   163  ASP163      0.1424
     40  CG        -4.9420    3.8250   14.0160 C.2   163  ASP163      0.3668
     41  OD1       -3.8250    3.7830   13.4400 O.co2 163  ASP163     -0.2456
     42  OD2       -5.6060    4.8770   14.1780 O.co2 163  ASP163     -0.2456
     43  N         -2.2810    1.5990   14.3300 N.am  164  ALA164     -0.1966
     44  CA        -1.0050    1.6050   15.0250 C.3   164  ALA164      0.1728
     45  C          0.1110    2.2460   14.2020 C.2   164  ALA164      0.2616
     46  O          0.1080    2.1970   12.9700 O.2   164  ALA164     -0.2715
     47  CB        -0.6240    0.1930   15.4020 C.3   164  ALA164      0.0334
     48  N          1.0700    2.8470   14.8960 N.am  165  LYS165     -0.1977
     49  CA         2.1990    3.4940   14.2370 C.3   165  LYS165      0.1596
     50  C          3.4870    3.1980   14.9890 C.2   165  LYS165      0.2287
     51  O          3.4780    3.0030   16.2070 O.2   165  LYS165     -0.2864
     52  CB         1.9760    5.0000   14.1560 C.3   165  LYS165      0.0298
     53  CG         0.9670    5.4010   13.1100 C.3   165  LYS165      0.0038
     54  CD         0.6690    6.8730   13.2150 C.3   165  LYS165      0.0206
     55  CE         1.9050    7.7110   13.0110 C.3   165  LYS165      0.1093
     56  NZ         1.5350    9.0800   12.5580 N.3   165  LYS165     -0.1314
     57  N          2.9500    3.2360   18.9010 N.3   186  SER186     -0.1217
     58  CA         1.6010    3.6220   19.2560 C.3   186  SER186      0.1889
     59  C          0.6340    2.6190   18.6470 C.2   186  SER186      0.2288
     60  O          0.7180    2.3340   17.4570 O.2   186  SER186     -0.2866
     61  CB         1.3030    5.0170   18.7150 C.3   186  SER186      0.2089
     62  OG         2.0640    6.0000   19.3860 O.3   186  SER186     -0.2183
     63  N          2.4760    4.5590   23.5070 N.3   225  ASN225     -0.1226
     64  CA         1.1750    5.2290   23.6720 C.3   225  ASN225      0.1770
     65  C          1.2710    6.4240   24.6130 C.2   225  ASN225      0.2439
     66  O          0.4770    6.5510   25.5420 O.2   225  ASN225     -0.2733
     67  CB         0.1380    4.2470   24.2080 C.3   225  ASN225      0.1168
     68  CG        -0.3420    3.2830   23.1510 C.2   225  ASN225      0.2627
     69  OD1        0.2780    3.1500   22.0970 O.2   225  ASN225     -0.2716
     70  ND2       -1.4520    2.6070   23.4220 N.am  225  ASN225     -0.0877
     71  N          2.2270    7.3290   24.3620 N.am  226  PRO226     -0.2718
     72  CA         2.4930    8.5290   25.1580 C.3   226  PRO226      0.1535
     73  C          1.3360    9.3730   25.6870 C.2   226  PRO226      0.2599
     74  O          1.3510    9.7490   26.8580 O.2   226  PRO226     -0.2715
     75  CB         3.4440    9.3350   24.2790 C.3   226  PRO226      0.0310
     76  CG         4.1590    8.3140   23.4990 C.3   226  PRO226      0.0237
     77  CD         3.1270    7.2580   23.1970 C.3   226  PRO226      0.0939
     78  N          0.3380    9.6840   24.8660 N.am  227  THR227     -0.1951
     79  CA        -0.7550   10.5030   25.3810 C.3   227  THR227      0.1897
     80  C         -1.3310    9.8340   26.6030 C.2   227  THR227      0.2313
     81  O         -2.0810   10.4450   27.3540 O.2   227  THR227     -0.2863
     82  CB        -1.8860   10.7020   24.3670 C.3   227  THR227      0.1794
     83  OG1       -2.8290    9.6290   24.4860 O.3   227  THR227     -0.2208
     84  CG2       -1.3310   10.7690   22.9620 C.3   227  THR227      0.0378
     85  N         -3.3290    7.3740   26.4720 N.3   229  ARG229     -0.1231
     86  CA        -4.5840    6.7330   26.0900 C.3   229  ARG229      0.1694
     87  C         -4.8470    6.7550   24.5860 C.2   229  ARG229      0.2592
     88  O         -4.8840    7.8080   23.9620 O.2   229  ARG229     -0.2718
     89  CB        -5.7410    7.3990   26.8300 C.3   229  ARG229      0.0321
     90  CG        -7.1040    7.1280   26.2460 C.3   229  ARG229      0.0489
     91  CD        -8.1090    6.8590   27.3400 C.3   229  ARG229      0.2205
     92  NE        -9.4630    6.8120   26.8130 N.pl3 229  ARG229     -0.0865
     93  CZ       -10.3450    5.8700   27.1250 C.cat 229  ARG229      0.5346
     94  NH1      -10.0030    4.9010   27.9630 N.pl3 229  ARG229      0.1354
     95  NH2      -11.5630    5.8960   26.6030 N.pl3 229  ARG229      0.1354
     96  N         -5.0200    5.5740   24.0130 N.am  230  PHE230     -0.1976
     97  CA        -5.2880    5.4240   22.5850 C.3   230  PHE230      0.1639
     98  C         -6.3670    4.3210   22.4210 C.2   230  PHE230      0.2290
     99  O         -6.0720    3.1860   22.0150 O.2   230  PHE230     -0.2864
    100  CB        -3.9650    5.0380   21.8930 C.3   230  PHE230      0.0560
    101  CG        -4.0200    5.0170   20.3840 C.ar  230  PHE230     -0.0200
    102  CD1       -5.1890    5.3230   19.6900 C.ar  230  PHE230     -0.0042
    103  CD2       -2.8860    4.6600   19.6530 C.ar  230  PHE230     -0.0042
    104  CE1       -5.2220    5.2690   18.2920 C.ar  230  PHE230     -0.0003
    105  CE2       -2.9110    4.6030   18.2540 C.ar  230  PHE230     -0.0003
    106  CZ        -4.0800    4.9070   17.5750 C.ar  230  PHE230     -0.0000
    107  N         -9.4880    5.3630   21.0370 N.3   232  ILE232     -0.1231
    108  CA       -10.1570    5.9040   19.8730 C.3   232  ILE232      0.1692
    109  C         -9.1160    6.0110   18.7690 C.2   232  ILE232      0.2592
    110  O         -8.1060    6.6680   18.9410 O.2   232  ILE232     -0.2718
    111  CB       -10.6840    7.3170   20.1690 C.3   232  ILE232      0.0266
    112  CG1      -11.8950    7.2420   21.0890 C.3   232  ILE232      0.0019
    113  CG2      -11.0290    8.0240   18.8870 C.3   232  ILE232      0.0020
    114  CD1      -12.2000    8.5500   21.7870 C.3   232  ILE232      0.0001
    115  N         -9.3600    5.3650   17.6420 N.am  233  GLY233     -0.1957
    116  CA        -8.4270    5.4340   16.5410 C.3   233  GLY233      0.1869
    117  C         -9.1540    5.2600   15.2230 C.2   233  GLY233      0.2309
    118  O        -10.3700    5.4690   15.1360 O.2   233  GLY233     -0.2863
    119  N        -10.5710    8.7920   14.7940 N.3   237  GLY237     -0.1210
    120  CA        -9.5820    9.6500   15.4060 C.3   237  GLY237      0.1956
    121  C         -8.7430   10.3970   14.3900 C.2   237  GLY237      0.2612
    122  O         -8.1390   11.4190   14.7310 O.2   237  GLY237     -0.2717
    123  N         -8.7100    9.9170   13.1440 N.am  238  ASP238     -0.1959
    124  CA        -7.8880   10.5670   12.1210 C.3   238  ASP238      0.1840
    125  C         -8.2850   10.2720   10.6780 C.2   238  ASP238      0.2622
    126  O         -8.4200    9.1060   10.2780 O.2   238  ASP238     -0.2715
    127  CB        -6.4480   10.1510   12.3300 C.3   238  ASP238      0.1450
    128  CG        -5.5030   11.0520   11.6470 C.2   238  ASP238      0.3671
    129  OD1       -5.8140   12.2400   11.6350 O.co2 238  ASP238     -0.2456
    130  OD2       -4.4560   10.5860   11.1270 O.co2 238  ASP238     -0.2456
    131  N         -8.4200   11.3320    9.8870 N.am  239  CYS239     -0.1968
    132  CA        -8.8280   11.2200    8.4820 C.3   239  CYS239      0.1712
    133  C         -7.8440   10.4570    7.5930 C.2   239  CYS239      0.2296
    134  O         -6.6750   10.7960    7.5410 O.2   239  CYS239     -0.2864
    135  CB        -9.0510   12.6290    7.9100 C.3   239  CYS239      0.0983
    136  SG       -10.0690   12.7810    6.4090 S.3   239  CYS239     -0.0798
    137  N         -0.7110    9.4700    1.1270 N.3   244  ARG244     -0.1231
    138  CA        -0.2110   10.3850    2.1420 C.3   244  ARG244      0.1694
    139  C          0.8270    9.6870    3.0060 C.2   244  ARG244      0.2591
    140  O          1.1750   10.1530    4.0960 O.2   244  ARG244     -0.2718
    141  CB        -1.3580   10.9430    2.9900 C.3   244  ARG244      0.0321
    142  CG        -2.2960   11.8910    2.2050 C.3   244  ARG244      0.0489
    143  CD        -1.8070   13.3510    2.1960 C.3   244  ARG244      0.2205
    144  NE        -1.5340   13.8340    3.5520 N.pl3 244  ARG244     -0.0865
    145  CZ        -2.3620   14.5820    4.2740 C.cat 244  ARG244      0.5346
    146  NH1       -3.5340   14.9520    3.7750 N.pl3 244  ARG244      0.1354
    147  NH2       -2.0210   14.9310    5.5090 N.pl3 244  ARG244      0.1354
    148  N          1.2960    8.5430    2.5140 N.am  245  LYS245     -0.1980
    149  CA         2.3410    7.7900    3.1950 C.3   245  LYS245      0.1596
    150  C          3.4940    7.5990    2.2220 C.2   245  LYS245      0.2287
    151  O          4.2060    6.6030    2.2500 O.2   245  LYS245     -0.2864
    152  CB         1.8260    6.4560    3.7270 C.3   245  LYS245      0.0298
    153  CG         1.8890    6.3810    5.2570 C.3   245  LYS245      0.0038
    154  CD         0.9910    7.4270    5.8880 C.3   245  LYS245      0.0206
    155  CE         1.4470    7.8100    7.3020 C.3   245  LYS245      0.1093
    156  NZ         1.0940    9.2420    7.6870 N.3   245  LYS245     -0.1314
@<TRIPOS>BOND
     1   137   138    1
     2   138   141    1
     3   138   139    1
     4   143   142    1
     5   143   144    1
     6   142   141    1
     7   150   151    2
     8   150   149    1
     9   148   139   am
    10   148   149    1
    11   139   140    2
    12   149   152    1
    13    30    29    2
    14   144   145    2
    15   152   153    1
    16   146   145    1
    17   145   147    1
    18    29    28    1
    19   153   154    1
    20    28    31    1
    21    28    27    1
    22    33    32   ar
    23    31    32    1
    24    23    22    2
    25    32    34   ar
    26   154   155    1
    27   136   135    1
    28    27    22   am
    29    22    21    1
    30   155   156    1
    31    13    12    2
    32   134   133    2
    33   133   132    1
    34   135   132    1
    35    21    24    1
    36    21    20    1
    37    16    18   ar
    38    16    15   ar
    39   132   131    1
    40     4     3    2
    41    12    20   am
    42    12    11    1
    43    24    25    1
    44    18    19   ar
    45    20    26    1
    46     9     7   ar
    47    14    15    1
    48    14    11    1
    49    15    17   ar
    50    11    10    1
    51     3     2    1
    52   131   125   am
    53     6     7    1
    54     6     5    1
    55    19    17   ar
    56     7     8   ar
    57     1     2    1
    58    25    26    1
    59   126   125    2
    60   125   124    1
    61     2     5    1
    62   130   128   ar
    63   129   128   ar
    64   128   127    1
    65   124   127    1
    66   124   123    1
    67    56    55    1
    68    46    45    2
    69    55    54    1
    70    53    54    1
    71    53    52    1
    72   123   121   am
    73    41    40   ar
    74    40    42   ar
    75    40    39    1
    76    36    35    1
    77    36    39    1
    78    36    37    1
    79    52    49    1
    80    45    48   am
    81    45    44    1
    82    49    48    1
    83    49    50    1
    84    43    37   am
    85    43    44    1
    86   121   122    2
    87   121   120    1
    88   119   120    1
    89    37    38    2
    90    50    51    2
    91    44    47    1
    92   118   117    2
    93   117   116    1
    94   116   115    1
    95    60    59    2
    96   106   105   ar
    97   106   104   ar
    98   115   109   am
    99   105   103   ar
   100   104   102   ar
   101    59    58    1
   102    61    58    1
   103    61    62    1
   104   109   110    2
   105   109   108    1
   106   113   111    1
   107    57    58    1
   108   103   101   ar
   109   102   101   ar
   110   108   111    1
   111   108   107    1
   112   111   112    1
   113   101   100    1
   114   112   114    1
   115   100    97    1
   116    99    98    2
   117    69    68    2
   118    98    97    1
   119    97    96    1
   120    84    82    1
   121    68    70   am
   122    68    67    1
   123    77    76    1
   124    77    71    1
   125    76    75    1
   126    63    64    1
   127    64    67    1
   128    64    65    1
   129    88    87    2
   130    96    87   am
   131    75    72    1
   132    71    65   am
   133    71    72    1
   134    82    83    1
   135    82    79    1
   136    87    86    1
   137    65    66    2
   138    78    79    1
   139    78    73   am
   140    72    73    1
   141    79    80    1
   142    73    74    2
   143    86    85    1
   144    86    89    1
   145    90    89    1
   146    90    91    1
   147    80    81    2
   148    95    93    1
   149    92    93    2
   150    92    91    1
   151    93    94    1
