@<TRIPOS>MOLECULE
tmp/1p7lB00.pdb
 95 86 0 0 0
SMALL
GASTEIGER

@<TRIPOS>ATOM
      1  N         -8.6810    7.5600   -6.2170 N.3    42  GLU42      -0.1245
      2  CA        -8.3360    8.2250   -4.9580 C.3    42  GLU42       0.1567
      3  C         -9.3880    7.9360   -3.8890 C.2    42  GLU42       0.2260
      4  O        -10.5900    8.1080   -4.1310 O.2    42  GLU42      -0.2867
      5  CB        -8.2340    9.7390   -5.1710 C.3    42  GLU42       0.0388
      6  CG        -7.2170   10.1650   -6.2050 C.3    42  GLU42       0.1160
      7  CD        -5.8050   10.0020   -5.7050 C.2    42  GLU42       0.3649
      8  OE1       -5.5980    9.2640   -4.7210 O.co2  42  GLU42      -0.2457
      9  OE2       -4.8930   10.6090   -6.2880 O.co2  42  GLU42      -0.2457
     10  N         -9.7700   11.7210  -18.7140 N.3    99  SER99      -0.1217
     11  CA        -9.9000   12.7380  -19.7300 C.3    99  SER99       0.1889
     12  C         -9.2390   12.2940  -21.0360 C.2    99  SER99       0.2288
     13  O         -8.0900   11.8650  -21.0490 O.2    99  SER99      -0.2866
     14  CB        -9.2550   14.0370  -19.2440 C.3    99  SER99       0.2089
     15  OG        -8.4890   14.6500  -20.2730 O.3    99  SER99      -0.2183
     16  N         -8.1990   14.0900  -23.3090 N.3   101  ASP101     -0.1225
     17  CA        -7.0950   15.0100  -23.5530 C.3   101  ASP101      0.1805
     18  C         -5.7880   14.4050  -23.0790 C.2   101  ASP101      0.2597
     19  O         -4.7680   14.4870  -23.7580 O.2   101  ASP101     -0.2718
     20  CB        -7.3400   16.3390  -22.8370 C.3   101  ASP101      0.1424
     21  CG        -8.2000   17.2870  -23.6540 C.2   101  ASP101      0.3668
     22  OD1       -8.8270   16.8350  -24.6370 O.co2 101  ASP101     -0.2456
     23  OD2       -8.2480   18.4840  -23.3090 O.co2 101  ASP101     -0.2456
     24  N         -5.8180   13.7960  -21.9010 N.am  102  ILE102     -0.1980
     25  CA        -4.6200   13.1690  -21.3710 C.3   102  ILE102      0.1595
     26  C         -4.3120   11.9210  -22.1880 C.2   102  ILE102      0.2287
     27  O         -3.1750   11.7010  -22.6060 O.2   102  ILE102     -0.2864
     28  CB        -4.8000   12.7500  -19.8950 C.3   102  ILE102      0.0276
     29  CG1       -4.9970   13.9820  -19.0180 C.3   102  ILE102      0.0022
     30  CG2       -3.5790   11.9930  -19.4180 C.3   102  ILE102      0.0022
     31  CD1       -5.1110   13.6690  -17.5440 C.3   102  ILE102      0.0001
     32  N          2.0580   11.3450  -17.0530 N.3   118  ASP118     -0.1225
     33  CA         2.1090   12.7000  -16.5210 C.3   118  ASP118      0.1805
     34  C          3.5510   13.1650  -16.4630 C.2   118  ASP118      0.2597
     35  O          4.4600   12.4220  -16.8240 O.2   118  ASP118     -0.2718
     36  CB         1.5120   12.6860  -15.1100 C.3   118  ASP118      0.1424
     37  CG         1.2430   14.0710  -14.5600 C.2   118  ASP118      0.3668
     38  OD1        1.4280   15.0510  -15.3080 O.co2 118  ASP118     -0.2456
     39  OD2        0.8430   14.1740  -13.3740 O.co2 118  ASP118     -0.2456
     40  N          3.7570   14.3990  -16.0190 N.am  119  GLN119     -0.1979
     41  CA         5.1010   14.9350  -15.8770 C.3   119  GLN119      0.1601
     42  C          5.5210   14.6370  -14.4370 C.2   119  GLN119      0.2287
     43  O          4.6900   14.2640  -13.6150 O.2   119  GLN119     -0.2864
     44  CB         5.0950   16.4420  -16.1170 C.3   119  GLN119      0.0394
     45  CG         4.5850   17.2620  -14.9440 C.3   119  GLN119      0.0908
     46  CD         4.7080   18.7570  -15.1720 C.2   119  GLN119      0.2608
     47  OE1        4.1940   19.3000  -16.1580 O.2   119  GLN119     -0.2717
     48  NE2        5.3880   19.4340  -14.2560 N.am  119  GLN119     -0.0878
     49  N          7.5010   13.0870   -5.0950 N.3   259  GLY259     -0.1210
     50  CA         6.1560   13.5290   -4.7810 C.3   259  GLY259      0.1956
     51  C          5.0300   12.7270   -5.3900 C.2   259  GLY259      0.2612
     52  O          3.8710   13.1340   -5.3050 O.2   259  GLY259     -0.2717
     53  N          5.3470   11.5790   -5.9830 N.am  260  GLY260     -0.1942
     54  CA         4.3100   10.7750   -6.6160 C.3   260  GLY260      0.2014
     55  C          3.8670    9.6010   -5.7840 C.2   260  GLY260      0.2638
     56  O          4.6980    8.8170   -5.3230 O.2   260  GLY260     -0.2714
     57  N          2.5580    9.4840   -5.5740 N.am  261  ALA261     -0.1977
     58  CA         2.0210    8.3830   -4.7840 C.3   261  ALA261      0.1597
     59  C          1.9560    7.1210   -5.6240 C.2   261  ALA261      0.2287
     60  O          2.0460    7.1780   -6.8430 O.2   261  ALA261     -0.2864
     61  CB         0.6400    8.7290   -4.2640 C.3   261  ALA261      0.0319
     62  N         -3.1700    3.7910   -8.9150 N.3   265  LYS265     -0.1245
     63  CA        -2.8570    4.0110  -10.3230 C.3   265  LYS265      0.1561
     64  C         -2.2790    2.8200  -11.0710 C.2   265  LYS265      0.2260
     65  O         -1.5010    2.0370  -10.5180 O.2   265  LYS265     -0.2867
     66  CB        -1.8870    5.1730  -10.4740 C.3   265  LYS265      0.0271
     67  CG        -1.6680    5.9870   -9.2290 C.3   265  LYS265      0.0035
     68  CD        -1.0350    7.3110   -9.6190 C.3   265  LYS265      0.0206
     69  CE        -0.2440    7.8880   -8.4820 C.3   265  LYS265      0.1093
     70  NZ        -0.3820    9.3470   -8.5310 N.3   265  LYS265     -0.1314
     71  N          1.1590    5.0020  -15.2840 N.3   269  LYS269     -0.1245
     72  CA         1.4210    6.1660  -14.4490 C.3   269  LYS269      0.1561
     73  C          2.8570    6.0790  -13.9480 C.2   269  LYS269      0.2260
     74  O          3.1660    5.3040  -13.0400 O.2   269  LYS269     -0.2867
     75  CB         0.4410    6.2140  -13.2600 C.3   269  LYS269      0.0271
     76  CG        -0.9320    6.8190  -13.5810 C.3   269  LYS269      0.0035
     77  CD        -1.9100    5.7700  -14.1340 C.3   269  LYS269      0.0206
     78  CE        -3.3350    6.3270  -14.2320 C.3   269  LYS269      0.1093
     79  NZ        -3.6040    7.0420  -15.5330 N.3   269  LYS269     -0.1314
     80  N          4.4760    7.6730  -11.9950 N.3   271  ASP271     -0.1239
     81  CA         4.6650    7.8970  -10.5650 C.3   271  ASP271      0.1674
     82  C          4.9790    6.5580   -9.8960 C.2   271  ASP271      0.2266
     83  O          5.8380    6.4700   -9.0190 O.2   271  ASP271     -0.2867
     84  CB         3.3920    8.4940   -9.9410 C.3   271  ASP271      0.1410
     85  CG         3.2750   10.0080  -10.1410 C.2   271  ASP271      0.3668
     86  OD1        2.1420   10.5190  -10.0460 O.co2 271  ASP271     -0.2456
     87  OD2        4.2990   10.6840  -10.3900 O.co2 271  ASP271     -0.2456
     88  N          4.4510   14.5890  -19.6450 N.3   302  ILE302     -0.1245
     89  CA         3.2030   13.9900  -20.0910 C.3   302  ILE302      0.1561
     90  C          3.1210   13.8120  -21.5980 C.2   302  ILE302      0.2260
     91  O          3.5520   14.6830  -22.3460 O.2   302  ILE302     -0.2867
     92  CB         2.0130   14.8340  -19.6320 C.3   302  ILE302      0.0252
     93  CG1        0.7310   14.0280  -19.7600 C.3   302  ILE302      0.0019
     94  CG2        1.9320   16.1250  -20.4340 C.3   302  ILE302      0.0019
     95  CD1       -0.4440   14.7280  -19.1210 C.3   302  ILE302      0.0001
@<TRIPOS>BOND
     1    22    21   ar
     2    19    18    2
     3    21    23   ar
     4    21    20    1
     5    17    16    1
     6    17    18    1
     7    17    20    1
     8    18    24   am
     9    27    26    2
    10    91    90    2
    11    26    25    1
    12    24    25    1
    13    90    89    1
    14    25    28    1
    15    13    12    2
    16    12    11    1
    17    94    92    1
    18    15    14    1
    19    89    88    1
    20    89    92    1
    21    28    30    1
    22    28    29    1
    23    93    92    1
    24    93    95    1
    25    11    14    1
    26    11    10    1
    27    29    31    1
    28    32    33    1
    29    35    34    2
    30    33    34    1
    31    33    36    1
    32    34    40   am
    33    47    46    2
    34    44    41    1
    35    44    45    1
    36    40    41    1
    37    41    42    1
    38    79    78    1
    39    38    37   ar
    40    71    72    1
    41    46    45    1
    42    46    48   am
    43    36    37    1
    44    37    39   ar
    45    72    73    1
    46    72    75    1
    47    42    43    2
    48    78    77    1
    49    77    76    1
    50    73    74    2
    51    76    75    1
    52    80    81    1
    53    64    65    2
    54    64    63    1
    55    81    84    1
    56    81    82    1
    57    66    63    1
    58    66    67    1
    59    87    85   ar
    60    63    62    1
    61    85    86   ar
    62    85    84    1
    63    82    83    2
    64    68    67    1
    65    68    69    1
    66    70    69    1
    67    60    59    2
    68    54    53    1
    69    54    55    1
    70     9     7   ar
    71     1     2    1
    72     6     7    1
    73     6     5    1
    74    53    51   am
    75    55    57   am
    76    55    56    2
    77     7     8   ar
    78    59    58    1
    79    57    58    1
    80    51    52    2
    81    51    50    1
    82     5     2    1
    83    49    50    1
    84     2     3    1
    85    58    61    1
    86     4     3    2
