@<TRIPOS>MOLECULE
tmp/1p7mA00.pdb
 124 123 0 0 0
SMALL
GASTEIGER

@<TRIPOS>ATOM
      1  N        139.3170   30.0750  -10.7600 N.3     6  TRP6       -0.1241
      2  CA       138.2190   29.5630   -9.8850 C.3     6  TRP6        0.1605
      3  C        138.2960   30.2540   -8.5270 C.2     6  TRP6        0.2264
      4  O        137.5050   29.9950   -7.6420 O.2     6  TRP6       -0.2867
      5  CB       138.3550   28.0460   -9.7000 C.3     6  TRP6        0.0550
      6  CG       139.7990   27.6780   -9.7270 C.ar    6  TRP6        0.0003
      7  CD1      140.7860   28.4000   -9.1590 C.ar    6  TRP6        0.0946
      8  CD2      140.4360   26.5190  -10.3340 C.ar    6  TRP6        0.0152
      9  NE1      141.9930   27.7710   -9.3960 N.ar    6  TRP6       -0.2442
     10  CE2      141.8300   26.6110  -10.1180 C.ar    6  TRP6        0.0810
     11  CE3      139.9490   25.4120  -11.0500 C.ar    6  TRP6        0.0012
     12  CZ2      142.7090   25.6460  -10.5970 C.ar    6  TRP6        0.0191
     13  CZ3      140.8350   24.4320  -11.5280 C.ar    6  TRP6        0.0001
     14  CH2      142.2130   24.5510  -11.3040 C.ar    6  TRP6        0.0015
     15  N        136.2980   28.9520   -2.6460 N.3    13  TYR13      -0.1241
     16  CA       137.5590   28.5870   -3.3440 C.3    13  TYR13       0.1605
     17  C        138.6860   29.4570   -2.7850 C.2    13  TYR13       0.2264
     18  O        139.7990   29.0080   -2.5980 O.2    13  TYR13      -0.2867
     19  CB       137.4090   28.8250   -4.8470 C.3    13  TYR13       0.0534
     20  CG       137.5270   27.5130   -5.5890 C.ar   13  TYR13      -0.0201
     21  CD1      138.6650   26.7150   -5.4230 C.ar   13  TYR13      -0.0009
     22  CD2      136.5000   27.0980   -6.4460 C.ar   13  TYR13      -0.0009
     23  CE1      138.7770   25.5030   -6.1170 C.ar   13  TYR13       0.0417
     24  CE2      136.6120   25.8850   -7.1380 C.ar   13  TYR13       0.0417
     25  CZ       137.7510   25.0890   -6.9730 C.ar   13  TYR13       0.1957
     26  OH       137.8630   23.8950   -7.6570 O.3    13  TYR13      -0.2866
     27  N        140.1470   27.7180    0.1600 N.3    16  TYR16      -0.1241
     28  CA       140.9880   26.5640   -0.2810 C.3    16  TYR16       0.1605
     29  C        142.2460   27.0870   -0.9680 C.2    16  TYR16       0.2264
     30  O        143.3350   26.5910   -0.7650 O.2    16  TYR16      -0.2867
     31  CB       140.1820   25.7160   -1.2650 C.3    16  TYR16       0.0534
     32  CG       141.0490   24.6240   -1.8520 C.ar   16  TYR16      -0.0201
     33  CD1      141.6810   23.6910   -1.0190 C.ar   16  TYR16      -0.0009
     34  CD2      141.2080   24.5400   -3.2390 C.ar   16  TYR16      -0.0009
     35  CE1      142.4700   22.6780   -1.5770 C.ar   16  TYR16       0.0417
     36  CE2      141.9930   23.5280   -3.7950 C.ar   16  TYR16       0.0417
     37  CZ       142.6240   22.5960   -2.9660 C.ar   16  TYR16       0.1957
     38  OH       143.3940   21.5950   -3.5190 O.3    16  TYR16      -0.2866
     39  N        147.2210   25.6660   -1.6120 N.3    21  TRP21      -0.1241
     40  CA       147.1570   25.1980   -3.0230 C.3    21  TRP21       0.1605
     41  C        148.5190   24.6120   -3.3820 C.2    21  TRP21       0.2264
     42  O        149.2370   25.1240   -4.2100 O.2    21  TRP21      -0.2867
     43  CB       146.8300   26.3430   -3.9920 C.3    21  TRP21       0.0550
     44  CG       146.5180   25.7680   -5.3540 C.ar   21  TRP21       0.0003
     45  CD1      147.4380   25.3460   -6.2660 C.ar   21  TRP21       0.0946
     46  CD2      145.2150   25.5460   -5.9800 C.ar   21  TRP21       0.0152
     47  NE1      146.7850   24.8840   -7.3850 N.ar   21  TRP21      -0.2442
     48  CE2      145.4230   24.9860   -7.2620 C.ar   21  TRP21       0.0810
     49  CE3      143.8870   25.7700   -5.5700 C.ar   21  TRP21       0.0012
     50  CZ2      144.3670   24.6620   -8.1010 C.ar   21  TRP21       0.0191
     51  CZ3      142.8170   25.4440   -6.4170 C.ar   21  TRP21       0.0001
     52  CH2      143.0560   24.8920   -7.6810 C.ar   21  TRP21       0.0015
     53  N        143.7400   13.4770    0.9440 N.3    34  MET34      -0.1245
     54  CA       143.6260   14.1880   -0.3650 C.3    34  MET34       0.1570
     55  C        143.1960   13.2300   -1.4750 C.2    34  MET34       0.2261
     56  O        142.3010   13.5250   -2.2420 O.2    34  MET34      -0.2867
     57  CB       144.9800   14.7970   -0.7240 C.3    34  MET34       0.0387
     58  CG       144.8330   15.7020   -1.9550 C.3    34  MET34       0.0595
     59  SD       146.2910   16.7670   -2.0970 S.3    34  MET34      -0.1393
     60  CE       145.7300   18.0790   -0.9800 C.3    34  MET34       0.0692
     61  N        139.8920   13.8010   -3.5060 N.3    38  GLU38      -0.1245
     62  CA       140.2730   14.0220   -4.9240 C.3    38  GLU38       0.1567
     63  C        139.6460   12.9430   -5.8150 C.2    38  GLU38       0.2260
     64  O        139.2800   13.1990   -6.9440 O.2    38  GLU38      -0.2867
     65  CB       141.7940   13.9720   -5.0540 C.3    38  GLU38       0.0388
     66  CG       142.1950   14.4010   -6.4640 C.3    38  GLU38       0.1160
     67  CD       142.0900   15.9190   -6.5770 C.2    38  GLU38       0.3649
     68  OE1      142.5400   16.5950   -5.6680 O.co2  38  GLU38      -0.2457
     69  OE2      141.5480   16.3780   -7.5640 O.co2  38  GLU38      -0.2457
     70  N        136.1130   13.7100   -7.2450 N.3    41  GLN41      -0.1245
     71  CA       135.8830   14.7250   -8.3230 C.3    41  GLN41       0.1566
     72  C        135.6900   14.0310   -9.6710 C.2    41  GLN41       0.2260
     73  O        135.5190   14.6790  -10.6850 O.2    41  GLN41      -0.2867
     74  CB       137.0750   15.6810   -8.4420 C.3    41  GLN41       0.0367
     75  CG       137.6220   16.0250   -7.0610 C.3    41  GLN41       0.0905
     76  CD       136.4730   16.2300   -6.0790 C.2    41  GLN41       0.2608
     77  OE1      135.4390   16.7620   -6.4250 O.2    41  GLN41      -0.2717
     78  NE2      136.6180   15.8230   -4.8540 N.am   41  GLN41      -0.0878
     79  N        134.9910   19.8110   -8.2070 N.3    46  TRP46      -0.1241
     80  CA       135.8150   19.9060   -6.9670 C.3    46  TRP46       0.1605
     81  C        135.0370   20.6300   -5.8630 C.2    46  TRP46       0.2264
     82  O        135.1420   20.2930   -4.7010 O.2    46  TRP46      -0.2867
     83  CB       137.1090   20.6630   -7.2860 C.3    46  TRP46       0.0550
     84  CG       137.6880   21.2570   -6.0400 C.ar   46  TRP46       0.0003
     85  CD1      137.3200   22.4470   -5.5190 C.ar   46  TRP46       0.0946
     86  CD2      138.7320   20.7330   -5.1610 C.ar   46  TRP46       0.0152
     87  NE1      138.0610   22.6910   -4.3810 N.ar   46  TRP46      -0.2442
     88  CE2      138.9450   21.6660   -4.1160 C.ar   46  TRP46       0.0810
     89  CE3      139.5070   19.5550   -5.1600 C.ar   46  TRP46       0.0012
     90  CZ2      139.8890   21.4420   -3.1150 C.ar   46  TRP46       0.0191
     91  CZ3      140.4550   19.3300   -4.1520 C.ar   46  TRP46       0.0001
     92  CH2      140.6470   20.2700   -3.1340 C.ar   46  TRP46       0.0015
     93  N        147.0590   13.9580  -11.2630 N.3   163  TYR163     -0.1227
     94  CA       147.5410   15.3330  -11.5510 C.3   163  TYR163      0.1736
     95  C        146.8750   16.3360  -10.6100 C.2   163  TYR163      0.2596
     96  O        147.5170   17.2230  -10.0860 O.2   163  TYR163     -0.2718
     97  CB       147.2150   15.6850  -13.0040 C.3   163  TYR163      0.0548
     98  CG       146.7000   17.1000  -13.0800 C.ar  163  TYR163     -0.0200
     99  CD1      145.3380   17.3530  -12.8920 C.ar  163  TYR163     -0.0009
    100  CD2      147.5800   18.1560  -13.3440 C.ar  163  TYR163     -0.0009
    101  CE1      144.8530   18.6650  -12.9650 C.ar  163  TYR163      0.0417
    102  CE2      147.0960   19.4680  -13.4180 C.ar  163  TYR163      0.0417
    103  CZ       145.7310   19.7220  -13.2300 C.ar  163  TYR163      0.1957
    104  OH       145.2540   21.0150  -13.3020 O.3   163  TYR163     -0.2866
    105  N        145.5970   16.2130  -10.3860 N.am  164  SER164     -0.1952
    106  CA       144.9250   17.1770   -9.4730 C.3   164  SER164      0.1924
    107  C        145.4960   17.0250   -8.0610 C.2   164  SER164      0.2314
    108  O        145.6820   17.9910   -7.3480 O.2   164  SER164     -0.2863
    109  CB       143.4220   16.9060   -9.4540 C.3   164  SER164      0.2116
    110  OG       142.9150   16.9690  -10.7810 O.3   164  SER164     -0.2180
    111  N        148.8070   18.7140   -7.7160 N.3   167  GLN167     -0.1231
    112  CA       148.5990   20.1820   -7.8610 C.3   167  GLN167      0.1698
    113  C        148.3740   20.8470   -6.4960 C.2   167  GLN167      0.2592
    114  O        148.9280   21.8890   -6.2050 O.2   167  GLN167     -0.2718
    115  CB       147.3590   20.4020   -8.7300 C.3   167  GLN167      0.0381
    116  CG       147.4040   21.7910   -9.3710 C.3   167  GLN167      0.0905
    117  CD       147.7970   21.6600  -10.8440 C.2   167  GLN167      0.2608
    118  OE1      147.4370   22.4910  -11.6550 O.2   167  GLN167     -0.2717
    119  NE2      148.5220   20.6440  -11.2310 N.am  167  GLN167     -0.0878
    120  N        147.5460   20.2710   -5.6710 N.am  168  ALA168     -0.1980
    121  CA       147.2590   20.8890   -4.3400 C.3   168  ALA168      0.1597
    122  C        148.1720   20.3330   -3.2450 C.2   168  ALA168      0.2287
    123  O        148.3380   20.9420   -2.2080 O.2   168  ALA168     -0.2864
    124  CB       145.8090   20.6140   -3.9610 C.3   168  ALA168      0.0319
@<TRIPOS>BOND
     1   102   100   ar
     2   102   103   ar
     3   100    98   ar
     4   104   103    1
     5   103   101   ar
     6    98    97    1
     7    98    99   ar
     8    97    94    1
     9   101    99   ar
    10   118   117    2
    11    94    93    1
    12    94    95    1
    13    13    14   ar
    14    13    11   ar
    15    14    12   ar
    16   119   117   am
    17    11     8   ar
    18   117   116    1
    19   110   109    1
    20     1     2    1
    21    73    72    2
    22    95   105   am
    23    95    96    2
    24    12    10   ar
    25   105   106    1
    26     8    10   ar
    27     8     6   ar
    28    10     9   ar
    29     2     5    1
    30     2     3    1
    31     6     5    1
    32     6     7   ar
    33    72    71    1
    34   106   109    1
    35   106   107    1
    36     9     7   ar
    37   116   115    1
    38   115   112    1
    39     3     4    2
    40    74    71    1
    41    74    75    1
    42    71    70    1
    43    79    80    1
    44    50    52   ar
    45    50    48   ar
    46   107   108    2
    47   112   111    1
    48   112   113    1
    49    52    51   ar
    50    26    25    1
    51    69    67   ar
    52    47    48   ar
    53    47    45   ar
    54    83    80    1
    55    83    84    1
    56    48    46   ar
    57    24    25   ar
    58    24    22   ar
    59    75    76    1
    60    25    23   ar
    61    80    81    1
    62    64    63    2
    63    67    66    1
    64    67    68   ar
    65   113   114    2
    66   113   120   am
    67    66    65    1
    68    22    20   ar
    69    77    76    2
    70    51    49   ar
    71    45    44   ar
    72    23    21   ar
    73    76    78   am
    74    84    85   ar
    75    84    86   ar
    76    46    49   ar
    77    46    44   ar
    78    81    82    2
    79    63    62    1
    80   120   121    1
    81    20    21   ar
    82    20    19    1
    83    85    87   ar
    84    44    43    1
    85    86    89   ar
    86    86    88   ar
    87    89    91   ar
    88    65    62    1
    89    62    61    1
    90    19    16    1
    91    87    88   ar
    92   121   124    1
    93   121   122    1
    94    42    41    2
    95    91    92   ar
    96    88    90   ar
    97    43    40    1
    98    36    34   ar
    99    36    37   ar
   100    38    37    1
   101    41    40    1
   102    16    17    1
   103    16    15    1
   104   122   123    2
   105    34    32   ar
   106    92    90   ar
   107    40    39    1
   108    37    35   ar
   109    17    18    2
   110    56    55    2
   111    59    58    1
   112    59    60    1
   113    58    57    1
   114    32    31    1
   115    32    33   ar
   116    35    33   ar
   117    55    54    1
   118    31    28    1
   119    29    30    2
   120    29    28    1
   121    57    54    1
   122    54    53    1
   123    28    27    1
