@<TRIPOS>MOLECULE
tmp/1p7rA01.pdb
 118 109 0 0 0
SMALL
GASTEIGER

@<TRIPOS>ATOM
      1  N         19.0460   21.6850   45.6130 N.3    78  PHE78      -0.1241
      2  CA        19.9110   20.8100   46.3920 C.3    78  PHE78       0.1605
      3  C         20.6510   21.4770   47.5420 C.2    78  PHE78       0.2264
      4  O         20.8410   22.6980   47.5680 O.2    78  PHE78      -0.2867
      5  CB        20.9350   20.1520   45.4840 C.3    78  PHE78       0.0534
      6  CG        20.3530   19.1800   44.5180 C.ar   78  PHE78      -0.0203
      7  CD1       20.9540   18.9670   43.2800 C.ar   78  PHE78      -0.0042
      8  CD2       19.2140   18.4570   44.8350 C.ar   78  PHE78      -0.0042
      9  CE1       20.4280   18.0560   42.3710 C.ar   78  PHE78      -0.0003
     10  CE2       18.6800   17.5330   43.9180 C.ar   78  PHE78      -0.0003
     11  CZ        19.2940   17.3410   42.6900 C.ar   78  PHE78      -0.0000
     12  N         23.2270   23.3100   39.8010 N.3    87  TYR87      -0.1241
     13  CA        22.3350   22.3110   39.2200 C.3    87  TYR87       0.1605
     14  C         21.3850   22.9630   38.2380 C.2    87  TYR87       0.2264
     15  O         20.6770   23.9100   38.5910 O.2    87  TYR87      -0.2867
     16  CB        21.5320   21.6320   40.3290 C.3    87  TYR87       0.0534
     17  CG        20.6350   20.4960   39.8890 C.ar   87  TYR87      -0.0201
     18  CD1       19.3030   20.4520   40.2570 C.ar   87  TYR87      -0.0009
     19  CD2       21.1360   19.4360   39.1500 C.ar   87  TYR87      -0.0009
     20  CE1       18.4990   19.3760   39.9080 C.ar   87  TYR87       0.0417
     21  CE2       20.3370   18.3590   38.7950 C.ar   87  TYR87       0.0417
     22  CZ        19.0260   18.3320   39.1790 C.ar   87  TYR87       0.1957
     23  OH        18.2530   17.2410   38.8460 O.3    87  TYR87      -0.2866
     24  N         19.7050   20.7560   35.5570 N.3    89  PHE89      -0.1241
     25  CA        19.1030   19.7140   34.7390 C.3    89  PHE89       0.1605
     26  C         17.6730   20.1030   34.4230 C.2    89  PHE89       0.2264
     27  O         17.0670   20.8670   35.1650 O.2    89  PHE89      -0.2867
     28  CB        19.0960   18.3640   35.4640 C.3    89  PHE89       0.0534
     29  CG        20.4570   17.7090   35.5940 C.ar   89  PHE89      -0.0203
     30  CD1       21.6080   18.3360   35.1370 C.ar   89  PHE89      -0.0042
     31  CD2       20.5740   16.4280   36.1250 C.ar   89  PHE89      -0.0042
     32  CE1       22.8560   17.6930   35.2020 C.ar   89  PHE89      -0.0003
     33  CE2       21.8050   15.7810   36.1930 C.ar   89  PHE89      -0.0003
     34  CZ        22.9440   16.4130   35.7310 C.ar   89  PHE89      -0.0000
     35  N         13.9810   19.3240   36.2580 N.3    92  THR92      -0.1218
     36  CA        14.1400   19.5310   37.6930 C.3    92  THR92       0.1862
     37  C         14.5350   20.9260   38.1990 C.2    92  THR92       0.2287
     38  O         14.1530   21.3130   39.3100 O.2    92  THR92      -0.2866
     39  CB        15.1030   18.4870   38.2810 C.3    92  THR92       0.1770
     40  OG1       14.6480   17.1770   37.9240 O.3    92  THR92      -0.2211
     41  CG2       15.1080   18.5620   39.7910 C.3    92  THR92       0.0375
     42  N         27.3010   13.5060   42.7230 N.3   175  MET175     -0.1230
     43  CA        26.2090   14.4690   42.7770 C.3   175  MET175      0.1702
     44  C         25.2170   14.1070   43.8940 C.2   175  MET175      0.2593
     45  O         24.5590   14.9820   44.4550 O.2   175  MET175     -0.2718
     46  CB        25.4770   14.5210   41.4330 C.3   175  MET175      0.0401
     47  CG        26.2090   15.2550   40.3340 C.3   175  MET175      0.0596
     48  SD        25.0650   15.8850   39.0820 S.3   175  MET175     -0.1393
     49  CE        25.0950   14.4670   37.9430 C.3   175  MET175      0.0692
     50  N         25.1200   12.8220   44.2160 N.am  176  THR176     -0.1953
     51  CA        24.2010   12.3650   45.2630 C.3   176  THR176      0.1897
     52  C         24.8430   12.0540   46.6330 C.2   176  THR176      0.2313
     53  O         24.2350   12.2820   47.6810 O.2   176  THR176     -0.2863
     54  CB        23.4370   11.1020   44.8250 C.3   176  THR176      0.1794
     55  OG1       24.3730   10.1170   44.3750 O.3   176  THR176     -0.2208
     56  CG2       22.4570   11.4140   43.7380 C.3   176  THR176      0.0378
     57  N         19.8880   14.5000   33.3510 N.3   235  LEU235     -0.1245
     58  CA        18.9230   14.0850   34.3530 C.3   235  LEU235      0.1561
     59  C         18.5510   12.6370   34.1320 C.2   235  LEU235      0.2260
     60  O         18.3840   11.8830   35.0850 O.2   235  LEU235     -0.2867
     61  CB        17.6610   14.9420   34.2900 C.3   235  LEU235      0.0270
     62  CG        16.5570   14.7420   35.3460 C.3   235  LEU235      0.0019
     63  CD1       17.0800   15.1350   36.7110 C.3   235  LEU235      0.0001
     64  CD2       15.3360   15.5870   35.0050 C.3   235  LEU235      0.0001
     65  N         21.2670   10.2400   35.5420 N.3   238  VAL238     -0.1231
     66  CA        21.1890   10.0740   36.9890 C.3   238  VAL238      0.1692
     67  C         20.0750    9.1050   37.3560 C.2   238  VAL238      0.2592
     68  O         20.2530    8.2590   38.2140 O.2   238  VAL238     -0.2718
     69  CB        20.9360   11.4180   37.7080 C.3   238  VAL238      0.0266
     70  CG1       20.5770   11.1790   39.1540 C.3   238  VAL238      0.0020
     71  CG2       22.1640   12.2720   37.6290 C.3   238  VAL238      0.0020
     72  N         18.9300    9.2200   36.7010 N.am  239  GLY239     -0.1957
     73  CA        17.8330    8.3230   36.9880 C.3   239  GLY239      0.1869
     74  C         18.1390    6.8660   36.6860 C.2   239  GLY239      0.2309
     75  O         17.8140    5.9830   37.4700 O.2   239  GLY239     -0.2863
     76  N         19.0550    5.5380   41.0490 N.3   243  THR243     -0.1218
     77  CA        17.7520    5.5680   41.6900 C.3   243  THR243      0.1862
     78  C         17.3430    4.1410   42.0010 C.2   243  THR243      0.2287
     79  O         17.4030    3.7220   43.1520 O.2   243  THR243     -0.2866
     80  CB        16.6860    6.2070   40.8030 C.3   243  THR243      0.1770
     81  OG1       16.5140    5.4330   39.6110 O.3   243  THR243     -0.2211
     82  CG2       17.0830    7.6100   40.4580 C.3   243  THR243      0.0375
     83  N         14.8410    9.3740   48.3430 N.3   286  VAL286     -0.1245
     84  CA        15.2430   10.6550   47.7730 C.3   286  VAL286      0.1561
     85  C         14.9330   11.8250   48.6820 C.2   286  VAL286      0.2260
     86  O         13.8760   11.8750   49.3030 O.2   286  VAL286     -0.2867
     87  CB        14.5390   10.9060   46.4040 C.3   286  VAL286      0.0252
     88  CG1       15.1170   12.1440   45.7290 C.3   286  VAL286      0.0019
     89  CG2       14.6830    9.6830   45.5090 C.3   286  VAL286      0.0019
     90  N         15.3200   15.9340   48.1920 N.3   288  ASP288     -0.1239
     91  CA        15.7240   17.2170   47.6780 C.3   288  ASP288      0.1674
     92  C         14.6610   18.2320   48.1110 C.2   288  ASP288      0.2266
     93  O         13.7620   17.8880   48.8760 O.2   288  ASP288     -0.2867
     94  CB        15.9670   17.1680   46.1550 C.3   288  ASP288      0.1410
     95  CG        14.7040   17.2300   45.3260 C.2   288  ASP288      0.3668
     96  OD1       13.9040   16.2800   45.3200 O.co2 288  ASP288     -0.2456
     97  OD2       14.5300   18.2520   44.6360 O.co2 288  ASP288     -0.2456
     98  N          7.8750   12.1550   39.3540 N.3   348  CYS348     -0.1235
     99  CA         8.7760   11.3030   38.5590 C.3   348  CYS348      0.1677
    100  C          8.2240   10.6920   37.2770 C.2   348  CYS348      0.2270
    101  O          7.2200    9.9840   37.3000 O.2   348  CYS348     -0.2867
    102  CB         9.3510   10.1700   39.4180 C.3   348  CYS348      0.0956
    103  SG        10.6660    9.1730   38.6120 S.3   348  CYS348     -0.0801
    104  N         21.5330   12.8640   48.8330 N.3   386  ILE386     -0.1231
    105  CA        20.3510   13.3250   48.1020 C.3   386  ILE386      0.1692
    106  C         19.5750   12.0860   47.7200 C.2   386  ILE386      0.2591
    107  O         18.3530   12.1140   47.6180 O.2   386  ILE386     -0.2718
    108  CB        20.7440   14.1470   46.8480 C.3   386  ILE386      0.0266
    109  CG1       21.3250   15.4990   47.2920 C.3   386  ILE386      0.0019
    110  CG2       19.5440   14.3350   45.9250 C.3   386  ILE386      0.0020
    111  CD1       21.7680   16.3870   46.1630 C.3   386  ILE386      0.0001
    112  N         20.3060   10.9930   47.5400 N.am  387  VAL387     -0.1980
    113  CA        19.7280    9.6910   47.2250 C.3   387  VAL387      0.1595
    114  C         20.5210    8.7050   48.0660 C.2   387  VAL387      0.2287
    115  O         21.7070    8.4820   47.8320 O.2   387  VAL387     -0.2864
    116  CB        19.8870    9.3060   45.7330 C.3   387  VAL387      0.0276
    117  CG1       19.1260    8.0380   45.4590 C.3   387  VAL387      0.0022
    118  CG2       19.3760   10.4100   44.8380 C.3   387  VAL387      0.0022
@<TRIPOS>BOND
     1    57    58    1
     2    59    58    1
     3    59    60    2
     4    61    58    1
     5    61    62    1
     6    26    25    1
     7    26    27    2
     8    25    28    1
     9    25    24    1
    10    64    62    1
    11    30    32   ar
    12    30    29   ar
    13    32    34   ar
    14    62    63    1
    15    28    29    1
    16    65    66    1
    17    29    31   ar
    18    34    33   ar
    19    31    33   ar
    20    35    36    1
    21    74    73    1
    22    74    75    2
    23    72    73    1
    24    72    67   am
    25    66    67    1
    26    66    69    1
    27   100   101    2
    28   100    99    1
    29    67    68    2
    30    71    69    1
    31    36    37    1
    32    36    39    1
    33    69    70    1
    34    40    39    1
    35    49    48    1
    36    37    38    2
    37    14    15    2
    38    14    13    1
    39    39    41    1
    40    99    98    1
    41    99   102    1
    42   103   102    1
    43    21    19   ar
    44    21    22   ar
    45    23    22    1
    46    48    47    1
    47    19    17   ar
    48    22    20   ar
    49    13    12    1
    50    13    16    1
    51    81    80    1
    52    17    18   ar
    53    17    16    1
    54    20    18   ar
    55    47    46    1
    56    82    80    1
    57    80    77    1
    58    76    77    1
    59    46    43    1
    60    77    78    1
    61    78    79    2
    62     9    11   ar
    63     9     7   ar
    64    11    10   ar
    65    42    43    1
    66    43    44    1
    67     7     6   ar
    68    56    54    1
    69    44    50   am
    70    44    45    2
    71    10     8   ar
    72    50    51    1
    73    55    54    1
    74     6     8   ar
    75     6     5    1
    76    97    95   ar
    77    54    51    1
    78   118   116    1
    79    51    52    1
    80    96    95   ar
    81    95    94    1
    82   117   116    1
    83     5     2    1
    84    89    87    1
    85     1     2    1
    86    88    87    1
    87   116   113    1
    88   110   108    1
    89    94    91    1
    90   111   109    1
    91     2     3    1
    92    87    84    1
    93    52    53    2
    94   108   109    1
    95   108   105    1
    96   113   112    1
    97   113   114    1
    98   112   106   am
    99     3     4    2
   100   107   106    2
   101    91    92    1
   102    91    90    1
   103   106   105    1
   104    84    83    1
   105    84    85    1
   106   115   114    2
   107   105   104    1
   108    92    93    2
   109    85    86    2
