@<TRIPOS>MOLECULE
tmp/1p7vA00.pdb
 211 204 0 0 0
SMALL
GASTEIGER

@<TRIPOS>ATOM
      1  N         40.9090   56.4480   37.4430 N.3    67  ASN67      -0.1240
      2  CA        42.2750   56.2140   37.8620 C.3    67  ASN67       0.1653
      3  C         43.2940   56.8890   36.9490 C.2    67  ASN67       0.2266
      4  O         44.1460   57.6370   37.4090 O.2    67  ASN67      -0.2867
      5  CB        42.5350   54.7120   37.9000 C.3    67  ASN67       0.1155
      6  CG        43.9210   54.3870   38.3860 C.2    67  ASN67       0.2627
      7  OD1       44.8750   54.4110   37.6150 O.2    67  ASN67      -0.2716
      8  ND2       44.0510   54.1090   39.6780 N.am   67  ASN67      -0.0877
      9  N         45.1680   54.8510   34.7050 N.3    69  HIS69      -0.1241
     10  CA        46.0250   53.7890   34.1920 C.3    69  HIS69       0.1621
     11  C         45.5240   53.2670   32.8440 C.2    69  HIS69       0.2264
     12  O         46.3060   53.1220   31.9010 O.2    69  HIS69      -0.2867
     13  CB        46.0850   52.6950   35.2500 C.3    69  HIS69       0.0745
     14  CG        46.9650   51.5380   34.9240 C.ar   69  HIS69       0.0817
     15  ND1       46.4930   50.4180   34.2790 N.ar   69  HIS69      -0.2268
     16  CD2       48.2550   51.2770   35.2420 C.ar   69  HIS69       0.1154
     17  CE1       47.4660   49.5280   34.1860 C.ar   69  HIS69       0.1986
     18  NE2       48.5430   50.0200   34.7700 N.ar   69  HIS69      -0.2212
     19  N         39.0680   46.7910   36.2690 N.3    96  LEU96      -0.1245
     20  CA        39.7680   47.3310   37.4270 C.3    96  LEU96       0.1561
     21  C         39.0300   48.5420   37.9390 C.2    96  LEU96       0.2260
     22  O         38.5700   49.3810   37.1710 O.2    96  LEU96      -0.2867
     23  CB        41.1990   47.7230   37.0570 C.3    96  LEU96       0.0270
     24  CG        42.0650   46.6270   36.4210 C.3    96  LEU96       0.0019
     25  CD1       43.4460   47.1730   36.1030 C.3    96  LEU96       0.0001
     26  CD2       42.1660   45.3950   37.3010 C.3    96  LEU96       0.0001
     27  N         40.8530   52.4130   42.0390 N.3    99  ASN99      -0.1225
     28  CA        42.1160   52.2250   42.7400 C.3    99  ASN99       0.1785
     29  C         43.0910   51.3250   41.9910 C.2    99  ASN99       0.2598
     30  O         44.1880   51.0760   42.4770 O.2    99  ASN99      -0.2718
     31  CB        41.8700   51.6840   44.1480 C.3    99  ASN99       0.1169
     32  CG        41.1820   52.6900   45.0360 C.2    99  ASN99       0.2627
     33  OD1       41.4520   53.8900   44.9580 O.2    99  ASN99      -0.2716
     34  ND2       40.2760   52.2120   45.8760 N.am   99  ASN99      -0.0877
     35  N         42.7020   50.8450   40.8090 N.am  100  GLY100     -0.1942
     36  CA        43.5880   50.0590   39.9780 C.3   100  GLY100      0.2014
     37  C         43.5370   48.5740   40.2480 C.2   100  GLY100      0.2640
     38  O         44.3300   47.8600   39.6940 O.2   100  GLY100     -0.2714
     39  N         42.6070   48.1260   41.0830 N.am  101  SER101     -0.1935
     40  CA        42.5030   46.7340   41.5250 C.3   101  SER101      0.2055
     41  C         41.2660   46.0530   40.9460 C.2   101  SER101      0.2644
     42  O         40.2870   46.6980   40.6690 O.2   101  SER101     -0.2714
     43  CB        42.4270   46.6690   43.0610 C.3   101  SER101      0.2130
     44  OG        43.2330   47.6500   43.6930 O.3   101  SER101     -0.2179
     45  N         41.3010   44.7360   40.8090 N.am  102  GLY102     -0.1939
     46  CA        40.1110   43.9910   40.4520 C.3   102  GLY102      0.2014
     47  C         40.2250   42.5600   40.9120 C.2   102  GLY102      0.2639
     48  O         41.3090   42.0020   40.9550 O.2   102  GLY102     -0.2714
     49  N         39.0950   41.9630   41.2530 N.am  103  GLN103     -0.1963
     50  CA        39.0550   40.5580   41.5850 C.3   103  GLN103      0.1733
     51  C         39.3100   39.7280   40.3450 C.2   103  GLN103      0.2616
     52  O         38.8590   40.0730   39.2490 O.2   103  GLN103     -0.2715
     53  CB        37.6890   40.1870   42.1490 C.3   103  GLN103      0.0408
     54  CG        37.4000   40.8120   43.4860 C.3   103  GLN103      0.0908
     55  CD        38.3070   40.2610   44.5610 C.2   103  GLN103      0.2608
     56  OE1       38.2160   39.0820   44.9030 O.2   103  GLN103     -0.2717
     57  NE2       39.2070   41.0960   45.0740 N.am  103  GLN103     -0.0878
     58  N         39.9840   38.6030   40.5180 N.am  104  TYR104     -0.1974
     59  CA        40.2110   37.7150   39.4030 C.3   104  TYR104      0.1639
     60  C         38.9130   37.2690   38.7370 C.2   104  TYR104      0.2290
     61  O         38.8770   37.1070   37.5260 O.2   104  TYR104     -0.2864
     62  CB        41.0410   36.5310   39.8540 C.3   104  TYR104      0.0560
     63  CG        42.5500   36.7090   39.8110 C.ar  104  TYR104     -0.0198
     64  CD1       43.1660   37.7240   39.0730 C.ar  104  TYR104     -0.0009
     65  CD2       43.3640   35.8010   40.4520 C.ar  104  TYR104     -0.0009
     66  CE1       44.5460   37.8210   39.0040 C.ar  104  TYR104      0.0417
     67  CE2       44.7410   35.8950   40.3920 C.ar  104  TYR104      0.0417
     68  CZ        45.3260   36.9000   39.6550 C.ar  104  TYR104      0.1957
     69  OH        46.6870   37.0060   39.5560 O.3   104  TYR104     -0.2866
     70  N         38.1010   39.9810   36.3030 N.3   107  ILE107     -0.1245
     71  CA        39.0620   39.9860   35.2170 C.3   107  ILE107      0.1561
     72  C         38.7750   38.8450   34.2280 C.2   107  ILE107      0.2260
     73  O         38.7990   39.0500   33.0080 O.2   107  ILE107     -0.2867
     74  CB        40.4920   39.9520   35.7900 C.3   107  ILE107      0.0252
     75  CG1       40.7920   41.2850   36.4930 C.3   107  ILE107      0.0019
     76  CG2       41.5190   39.6760   34.7040 C.3   107  ILE107      0.0019
     77  CD1       41.9690   41.2430   37.4440 C.3   107  ILE107      0.0001
     78  N         47.2040   45.0240   30.8530 N.3   132  SER132     -0.1202
     79  CA        48.2150   45.5890   31.7270 C.3   132  SER132      0.2020
     80  C         47.7730   45.4030   33.1740 C.2   132  SER132      0.2619
     81  O         47.4320   46.3460   33.8800 O.2   132  SER132     -0.2717
     82  CB        48.4120   47.0550   31.4020 C.3   132  SER132      0.2103
     83  OG        49.0390   47.1720   30.1380 O.3   132  SER132     -0.2182
     84  N         47.7780   44.1500   33.6000 N.am  133  LEU133     -0.1965
     85  CA        47.2700   43.7730   34.8960 C.3   133  LEU133      0.1728
     86  C         47.8110   42.4040   35.2440 C.2   133  LEU133      0.2617
     87  O         48.3950   41.7110   34.4210 O.2   133  LEU133     -0.2715
     88  CB        45.7290   43.7870   34.9160 C.3   133  LEU133      0.0311
     89  CG        44.9840   42.9310   33.8880 C.3   133  LEU133      0.0022
     90  CD1       45.0650   41.4330   34.2070 C.3   133  LEU133      0.0001
     91  CD2       43.5230   43.3740   33.7960 C.3   133  LEU133      0.0001
     92  N         47.5850   42.0130   36.4820 N.am  134  GLY134     -0.1940
     93  CA        47.9100   40.6860   36.9310 C.3   134  GLY134      0.2014
     94  C         48.1740   40.6250   38.4070 C.2   134  GLY134      0.2639
     95  O         48.2960   41.6320   39.1050 O.2   134  GLY134     -0.2714
     96  N         48.2550   39.3930   38.8760 N.am  135  GLY135     -0.1939
     97  CA        48.5510   39.0980   40.2610 C.3   135  GLY135      0.2014
     98  C         49.2660   37.7690   40.3220 C.2   135  GLY135      0.2639
     99  O         49.9490   37.3790   39.3900 O.2   135  GLY135     -0.2714
    100  N         49.1210   37.0750   41.4400 N.am  136  GLY136     -0.1954
    101  CA        49.7480   35.7810   41.6130 C.3   136  GLY136      0.1869
    102  C         49.1900   34.7070   40.7040 C.2   136  GLY136      0.2309
    103  O         48.1140   34.8510   40.1230 O.2   136  GLY136     -0.2863
    104  N         50.9920   41.9280   30.5250 N.3   158  ALA158     -0.1231
    105  CA        52.1630   42.4200   31.2340 C.3   158  ALA158      0.1694
    106  C         52.8750   41.2820   31.9440 C.2   158  ALA158      0.2592
    107  O         52.2530   40.4220   32.5640 O.2   158  ALA158     -0.2718
    108  CB        51.7510   43.4670   32.2450 C.3   158  ALA158      0.0304
    109  N         54.2000   41.3010   31.9120 N.am  159  ALA159     -0.1966
    110  CA        54.9630   40.2880   32.6310 C.3   159  ALA159      0.1728
    111  C         54.8640   40.4620   34.1420 C.2   159  ALA159      0.2617
    112  O         55.0110   39.4850   34.8700 O.2   159  ALA159     -0.2715
    113  CB        56.4130   40.3110   32.1970 C.3   159  ALA159      0.0334
    114  N         54.6610   41.6950   34.5900 N.am  160  GLY160     -0.1940
    115  CA        54.6520   42.0340   35.9960 C.3   160  GLY160      0.2014
    116  C         55.8800   42.8050   36.4170 C.2   160  GLY160      0.2639
    117  O         56.9070   42.7730   35.7580 O.2   160  GLY160     -0.2714
    118  N         55.7540   43.4790   37.5530 N.am  161  ASN161     -0.1958
    119  CA        56.7340   44.4610   38.0210 C.3   161  ASN161      0.1819
    120  C         57.4130   44.0400   39.3140 C.2   161  ASN161      0.2621
    121  O         57.6880   44.8700   40.1640 O.2   161  ASN161     -0.2715
    122  CB        56.0800   45.8200   38.2550 C.3   161  ASN161      0.1195
    123  CG        55.3950   46.3680   37.0360 C.2   161  ASN161      0.2630
    124  OD1       55.7810   46.0980   35.9040 O.2   161  ASN161     -0.2716
    125  ND2       54.3820   47.1880   37.2640 N.am  161  ASN161     -0.0877
    126  N         57.7090   42.7550   39.4300 N.am  162  ASN162     -0.1972
    127  CA        58.2400   42.1650   40.6500 C.3   162  ASN162      0.1688
    128  C         59.7450   41.8750   40.5900 C.2   162  ASN162      0.2292
    129  O         60.3050   41.3010   41.5290 O.2   162  ASN162     -0.2864
    130  CB        57.4450   40.8720   40.9580 C.3   162  ASN162      0.1181
    131  CG        55.9270   41.0570   40.7980 C.2   162  ASN162      0.2629
    132  OD1       55.2660   41.5430   41.7260 O.2   162  ASN162     -0.2716
    133  ND2       55.3720   40.6670   39.6510 N.am  162  ASN162     -0.0877
    134  N         53.1210   34.4850   38.1580 N.3   169  TYR169     -0.1227
    135  CA        52.1540   35.5550   38.0340 C.3   169  TYR169      0.1736
    136  C         51.2010   35.2380   36.8990 C.2   169  TYR169      0.2596
    137  O         51.5530   34.5330   35.9640 O.2   169  TYR169     -0.2718
    138  CB        52.8890   36.8800   37.8030 C.3   169  TYR169      0.0548
    139  CG        53.7660   37.2190   38.9780 C.ar  169  TYR169     -0.0200
    140  CD1       53.2420   37.8450   40.1020 C.ar  169  TYR169     -0.0009
    141  CD2       55.0940   36.8390   39.0070 C.ar  169  TYR169     -0.0009
    142  CE1       54.0320   38.1260   41.1990 C.ar  169  TYR169      0.0417
    143  CE2       55.8840   37.1110   40.1040 C.ar  169  TYR169      0.0417
    144  CZ        55.3530   37.7470   41.1970 C.ar  169  TYR169      0.1957
    145  OH        56.1710   38.0170   42.2760 O.3   169  TYR169     -0.2866
    146  N         49.9880   35.7650   36.9920 N.am  170  SER170     -0.1952
    147  CA        48.9670   35.5440   35.9770 C.3   170  SER170      0.1924
    148  C         48.3040   36.8590   35.5910 C.2   170  SER170      0.2314
    149  O         48.0810   37.7080   36.4510 O.2   170  SER170     -0.2863
    150  CB        47.9120   34.5840   36.5100 C.3   170  SER170      0.2116
    151  OG        48.4330   33.2690   36.6040 O.3   170  SER170     -0.2180
    152  N         46.2960   60.7720   29.9890 N.3   212  TRP212     -0.1241
    153  CA        45.7950   60.5940   31.3370 C.3   212  TRP212      0.1605
    154  C         44.4210   61.2250   31.4220 C.2   212  TRP212      0.2264
    155  O         43.9930   61.9630   30.5340 O.2   212  TRP212     -0.2867
    156  CB        46.7390   61.2260   32.3620 C.3   212  TRP212      0.0550
    157  CG        46.6020   60.7160   33.7590 C.ar  212  TRP212      0.0003
    158  CD1       46.0540   61.3580   34.8300 C.ar  212  TRP212      0.0946
    159  CD2       47.0790   59.4670   34.2350 C.ar  212  TRP212      0.0152
    160  NE1       46.1530   60.5680   35.9490 N.ar  212  TRP212     -0.2442
    161  CE2       46.8010   59.4070   35.6140 C.ar  212  TRP212      0.0810
    162  CE3       47.7560   58.3980   33.6380 C.ar  212  TRP212      0.0012
    163  CZ2       47.1630   58.3180   36.3940 C.ar  212  TRP212      0.0191
    164  CZ3       48.1120   57.3310   34.4020 C.ar  212  TRP212      0.0001
    165  CH2       47.8180   57.2920   35.7700 C.ar  212  TRP212      0.0015
    166  N         50.7900   62.2350   31.1240 N.3   218  ARG218     -0.1245
    167  CA        51.8800   62.0610   32.0700 C.3   218  ARG218      0.1563
    168  C         52.7400   60.8890   31.6590 C.2   218  ARG218      0.2260
    169  O         52.3610   60.0530   30.8410 O.2   218  ARG218     -0.2867
    170  CB        51.4110   61.8670   33.5160 C.3   218  ARG218      0.0307
    171  CG        50.5800   60.6250   33.7590 C.3   218  ARG218      0.0489
    172  CD        50.1870   60.4830   35.2110 C.3   218  ARG218      0.2205
    173  NE        49.3420   61.6080   35.6030 N.pl3 218  ARG218     -0.0865
    174  CZ        48.9150   61.8660   36.8270 C.cat 218  ARG218      0.5346
    175  NH1       49.2170   61.0690   37.8320 N.pl3 218  ARG218      0.1354
    176  NH2       48.1630   62.9370   37.0470 N.pl3 218  ARG218      0.1354
    177  N         54.6590   57.5830   33.1020 N.3   220  ILE220     -0.1231
    178  CA        54.7450   56.5750   34.1540 C.3   220  ILE220      0.1692
    179  C         55.4880   55.3580   33.6310 C.2   220  ILE220      0.2592
    180  O         55.8050   55.2590   32.4480 O.2   220  ILE220     -0.2718
    181  CB        53.3540   56.2060   34.7510 C.3   220  ILE220      0.0266
    182  CG1       52.3830   55.7120   33.6810 C.3   220  ILE220      0.0019
    183  CG2       52.7770   57.3910   35.5190 C.3   220  ILE220      0.0020
    184  CD1       51.1700   55.0020   34.2460 C.3   220  ILE220      0.0001
    185  N         55.7770   54.4300   34.5300 N.am  221  SER221     -0.1952
    186  CA        56.6140   53.2820   34.2160 C.3   221  SER221      0.1924
    187  C         55.9580   51.9890   34.6580 C.2   221  SER221      0.2314
    188  O         55.2710   51.9320   35.6730 O.2   221  SER221     -0.2863
    189  CB        57.9500   53.3870   34.9400 C.3   221  SER221      0.2116
    190  OG        58.6730   54.5250   34.5320 O.3   221  SER221     -0.2180
    191  N         55.6150   47.3790   33.3850 N.3   223  THR223     -0.1203
    192  CA        55.2750   46.4490   32.3190 C.3   223  THR223      0.1994
    193  C         53.8760   46.7310   31.7770 C.2   223  THR223      0.2619
    194  O         53.5730   46.3450   30.6560 O.2   223  THR223     -0.2717
    195  CB        55.4270   44.9680   32.7050 C.3   223  THR223      0.1784
    196  OG1       54.6020   44.6530   33.8360 O.3   223  THR223     -0.2211
    197  CG2       56.8640   44.6310   33.0550 C.3   223  THR223      0.0376
    198  N         53.0430   47.4380   32.5390 N.am  224  SER224     -0.1937
    199  CA        51.7730   47.9410   32.0250 C.3   224  SER224      0.2055
    200  C         51.9400   48.8730   30.8360 C.2   224  SER224      0.2642
    201  O         51.0130   48.9980   30.0480 O.2   224  SER224     -0.2714
    202  CB        51.0210   48.7270   33.0890 C.3   224  SER224      0.2130
    203  OG        50.4190   47.8900   34.0420 O.3   224  SER224     -0.2179
    204  N         53.0760   49.5630   30.7500 N.am  225  MET225     -0.1976
    205  CA        53.3430   50.5100   29.6830 C.3   225  MET225      0.1605
    206  C         53.9590   49.8010   28.4700 C.2   225  MET225      0.2287
    207  O         53.7680   50.2320   27.3360 O.2   225  MET225     -0.2864
    208  CB        54.2970   51.6140   30.1650 C.3   225  MET225      0.0413
    209  CG        53.7030   52.6620   31.0930 C.3   225  MET225      0.0598
    210  SD        53.0340   52.1170   32.6610 S.3   225  MET225     -0.1393
    211  CE        51.2950   52.0840   32.2420 C.3   225  MET225      0.0692
@<TRIPOS>BOND
     1   207   206    2
     2   206   205    1
     3   205   208    1
     4   205   204    1
     5   152   153    1
     6   201   200    2
     7    83    82    1
     8   208   209    1
     9   104   105    1
    10   155   154    2
    11   194   193    2
    12   204   200   am
    13   200   199    1
    14   169   168    2
    15    78    79    1
    16   209   210    1
    17   166   167    1
    18   105   106    1
    19   105   108    1
    20   153   154    1
    21   153   156    1
    22    82    79    1
    23   168   167    1
    24    79    80    1
    25   193   192    1
    26   193   198   am
    27    12    11    2
    28   109   106   am
    29   109   110    1
    30   106   107    2
    31   199   198    1
    32   199   202    1
    33   167   170    1
    34   113   110    1
    35   211   210    1
    36   192   195    1
    37   192   191    1
    38   156   157    1
    39   180   179    2
    40   110   111    1
    41   195   197    1
    42   195   196    1
    43    11    10    1
    44    73    72    2
    45   202   203    1
    46   177   178    1
    47    80    84   am
    48    80    81    2
    49   170   171    1
    50    84    85    1
    51   179   178    1
    52   179   185   am
    53   162   159   ar
    54   162   164   ar
    55   182   184    1
    56   182   181    1
    57   171   172    1
    58   157   159   ar
    59   157   158   ar
    60    91    89    1
    61    89    90    1
    62    89    88    1
    63   111   114   am
    64   111   112    2
    65   178   181    1
    66    17    15   ar
    67    17    18   ar
    68    10     9    1
    69    10    13    1
    70   186   185    1
    71   186   187    1
    72   186   189    1
    73    72    71    1
    74   159   161   ar
    75    15    14   ar
    76   164   165   ar
    77    87    86    2
    78   190   189    1
    79   114   115    1
    80   187   188    2
    81    76    74    1
    82   181   183    1
    83    18    16   ar
    84   158   160   ar
    85    85    88    1
    86    85    86    1
    87    14    16   ar
    88    14    13    1
    89   172   173    1
    90    71    74    1
    91    71    70    1
    92    86    92   am
    93   148   147    1
    94   148   149    2
    95   173   174    2
    96   161   160   ar
    97   161   163   ar
    98   117   116    2
    99   165   163   ar
   100    74    75    1
   101   124   123    2
   102   137   136    2
   103   147   150    1
   104   147   146    1
   105   115   116    1
   106    25    24    1
   107    19    20    1
   108   116   118   am
   109    24    23    1
   110    24    26    1
   111    92    93    1
   112    75    77    1
   113   150   151    1
   114   174   176    1
   115   174   175    1
   116   136   146   am
   117   136   135    1
   118    93    94    1
   119     3     4    2
   120     3     2    1
   121   123   125   am
   122   123   122    1
   123    23    20    1
   124    22    21    2
   125    20    21    1
   126     1     2    1
   127    61    60    2
   128   118   119    1
   129     7     6    2
   130   138   135    1
   131   138   139    1
   132     2     5    1
   133     5     6    1
   134   119   122    1
   135   119   120    1
   136   135   134    1
   137     6     8   am
   138    94    96   am
   139    94    95    2
   140    60    59    1
   141    96    97    1
   142   139   141   ar
   143   139   140   ar
   144    66    64   ar
   145    66    68   ar
   146   141   143   ar
   147    64    63   ar
   148    52    51    2
   149   120   126   am
   150   120   121    2
   151    99    98    2
   152    59    62    1
   153    59    58    1
   154   126   127    1
   155    69    68    1
   156   133   131   am
   157    68    67   ar
   158    38    37    2
   159    63    62    1
   160    63    65   ar
   161    36    37    1
   162    36    35    1
   163   140   142   ar
   164   143   144   ar
   165   103   102    2
   166    37    39   am
   167    97    98    1
   168    98   100   am
   169    51    58   am
   170    51    50    1
   171    67    65   ar
   172    46    45    1
   173    46    47    1
   174   128   127    1
   175   128   129    2
   176   127   130    1
   177    42    41    2
   178   102   101    1
   179   131   130    1
   180   131   132    2
   181    35    29   am
   182    45    41   am
   183    47    48    2
   184    47    49   am
   185    41    40    1
   186    39    40    1
   187   144   142   ar
   188   144   145    1
   189    49    50    1
   190   100   101    1
   191    40    43    1
   192    50    53    1
   193    29    30    2
   194    29    28    1
   195    27    28    1
   196    53    54    1
   197    28    31    1
   198    43    44    1
   199    54    55    1
   200    31    32    1
   201    55    56    2
   202    55    57   am
   203    33    32    2
   204    32    34   am
