@<TRIPOS>MOLECULE
tmp/1p84C02.pdb
 177 170 0 0 0
SMALL
GASTEIGER

@<TRIPOS>ATOM
      1  N        -13.0010   45.2180  -10.6060 N.3   125  ILE125     -0.1245
      2  CA       -13.5060   44.0570  -11.3280 C.3   125  ILE125      0.1561
      3  C        -12.4140   42.9920  -11.3590 C.2   125  ILE125      0.2260
      4  O        -12.6640   41.8430  -11.0140 O.2   125  ILE125     -0.2867
      5  CB       -13.9640   44.4480  -12.7710 C.3   125  ILE125      0.0252
      6  CG1      -15.3690   45.0530  -12.6990 C.3   125  ILE125      0.0019
      7  CG2      -13.9420   43.2420  -13.7210 C.3   125  ILE125      0.0019
      8  CD1      -15.7920   45.8010  -13.9430 C.3   125  ILE125      0.0001
      9  N        -12.6000   39.2210   -9.4220 N.3   129  PHE129     -0.1241
     10  CA       -12.4700   38.0430  -10.2590 C.3   129  PHE129      0.1605
     11  C        -11.3410   37.1220   -9.7610 C.2   129  PHE129      0.2264
     12  O        -11.5260   35.9050   -9.6530 O.2   129  PHE129     -0.2867
     13  CB       -12.2600   38.4570  -11.7350 C.3   129  PHE129      0.0534
     14  CG       -11.5730   37.4080  -12.5740 C.ar  129  PHE129     -0.0203
     15  CD1      -12.2840   36.3160  -13.0580 C.ar  129  PHE129     -0.0042
     16  CD2      -10.1910   37.4880  -12.8190 C.ar  129  PHE129     -0.0042
     17  CE1      -11.6380   35.3070  -13.7640 C.ar  129  PHE129     -0.0003
     18  CE2       -9.5260   36.4910  -13.5240 C.ar  129  PHE129     -0.0003
     19  CZ       -10.2500   35.3880  -14.0010 C.ar  129  PHE129     -0.0000
     20  N        -12.3640   35.3350   -6.8020 N.3   132  TYR132     -0.1241
     21  CA       -13.3180   34.3090   -7.1770 C.3   132  TYR132      0.1605
     22  C        -12.6100   33.0170   -7.5720 C.2   132  TYR132      0.2264
     23  O        -13.0590   31.9280   -7.2270 O.2   132  TYR132     -0.2867
     24  CB       -14.1850   34.7990   -8.3320 C.3   132  TYR132      0.0534
     25  CG       -15.4770   34.0640   -8.3900 C.ar  132  TYR132     -0.0201
     26  CD1      -16.3190   34.0530   -7.2790 C.ar  132  TYR132     -0.0009
     27  CD2      -15.8140   33.2790   -9.4970 C.ar  132  TYR132     -0.0009
     28  CE1      -17.4580   33.2650   -7.2520 C.ar  132  TYR132      0.0417
     29  CE2      -16.9580   32.4850   -9.4870 C.ar  132  TYR132      0.0417
     30  CZ       -17.7730   32.4780   -8.3520 C.ar  132  TYR132      0.1957
     31  OH       -18.8700   31.6440   -8.2740 O.3   132  TYR132     -0.2866
     32  N        -17.2950   27.0440  -10.7810 N.3   139  MET139     -0.1245
     33  CA       -17.3690   28.3550  -11.4110 C.3   139  MET139      0.1570
     34  C        -16.0050   29.0170  -11.5030 C.2   139  MET139      0.2261
     35  O        -15.6670   29.6120  -12.5220 O.2   139  MET139     -0.2867
     36  CB       -18.3520   29.2540  -10.6770 C.3   139  MET139      0.0387
     37  CG       -19.8160   28.9040  -10.9400 C.3   139  MET139      0.0595
     38  SD       -20.3320   29.1760  -12.6780 S.3   139  MET139     -0.1393
     39  CE       -20.0670   27.5430  -13.3540 C.3   139  MET139      0.0692
     40  N        -13.7850   27.5420  -14.5100 N.3   142  TRP142     -0.1227
     41  CA       -14.2070   27.9530  -15.8270 C.3   142  TRP142      0.1737
     42  C        -14.0740   29.4500  -16.0400 C.2   142  TRP142      0.2596
     43  O        -13.6760   29.8910  -17.1320 O.2   142  TRP142     -0.2718
     44  CB       -15.5880   27.3710  -16.1620 C.3   142  TRP142      0.0564
     45  CG       -15.4780   25.8740  -16.2280 C.ar  142  TRP142      0.0003
     46  CD1      -15.9820   24.9720  -15.3310 C.ar  142  TRP142      0.0946
     47  CD2      -14.6280   25.1270  -17.1080 C.ar  142  TRP142      0.0152
     48  NE1      -15.4700   23.7220  -15.5750 N.ar  142  TRP142     -0.2442
     49  CE2      -14.6370   23.7850  -16.6590 C.ar  142  TRP142      0.0810
     50  CE3      -13.8490   25.4650  -18.2220 C.ar  142  TRP142      0.0012
     51  CZ2      -13.8920   22.7790  -17.2820 C.ar  142  TRP142      0.0191
     52  CZ3      -13.1040   24.4630  -18.8470 C.ar  142  TRP142      0.0001
     53  CH2      -13.1320   23.1340  -18.3700 C.ar  142  TRP142      0.0015
     54  N        -14.2880   30.2190  -14.9690 N.am  143  GLY143     -0.1957
     55  CA       -14.1280   31.6630  -15.0530 C.3   143  GLY143      0.1869
     56  C        -12.6710   31.9930  -15.3640 C.2   143  GLY143      0.2309
     57  O        -12.3820   32.7930  -16.2540 O.2   143  GLY143     -0.2863
     58  N        -12.2030   31.1260  -19.0630 N.3   146  VAL146     -0.1231
     59  CA       -12.8090   32.0950  -19.9680 C.3   146  VAL146      0.1692
     60  C        -12.0760   33.4600  -19.9900 C.2   146  VAL146      0.2591
     61  O        -11.5940   33.8880  -21.0410 O.2   146  VAL146     -0.2718
     62  CB       -14.3210   32.2800  -19.6430 C.3   146  VAL146      0.0266
     63  CG1      -14.9010   33.4580  -20.3970 C.3   146  VAL146      0.0020
     64  CG2      -15.0930   31.0200  -20.0070 C.3   146  VAL146      0.0020
     65  N        -11.9480   34.1100  -18.8290 N.am  147  ILE147     -0.1980
     66  CA       -11.2820   35.4080  -18.7430 C.3   147  ILE147      0.1595
     67  C         -9.8490   35.4090  -19.2600 C.2   147  ILE147      0.2287
     68  O         -9.4230   36.3810  -19.8670 O.2   147  ILE147     -0.2864
     69  CB       -11.3490   36.0260  -17.2910 C.3   147  ILE147      0.0276
     70  CG1      -12.6420   36.8240  -17.0960 C.3   147  ILE147      0.0022
     71  CG2      -10.2080   36.9870  -17.0370 C.3   147  ILE147      0.0022
     72  CD1      -13.8780   35.9750  -16.8890 C.3   147  ILE147      0.0001
     73  N         -9.8130   35.3540  -22.9630 N.3   150  LEU150     -0.1245
     74  CA       -10.2390   36.6230  -23.5440 C.3   150  LEU150      0.1561
     75  C         -9.0840   37.2500  -24.3410 C.2   150  LEU150      0.2260
     76  O         -9.2920   37.8940  -25.3630 O.2   150  LEU150     -0.2867
     77  CB       -10.6390   37.5600  -22.4170 C.3   150  LEU150      0.0270
     78  CG       -11.9030   38.3970  -22.4870 C.3   150  LEU150      0.0019
     79  CD1      -13.0870   37.5710  -22.9260 C.3   150  LEU150      0.0001
     80  CD2      -12.1380   38.9900  -21.0970 C.3   150  LEU150      0.0001
     81  N        -17.7060   21.0200  -17.7270 N.3   265  THR265     -0.1218
     82  CA       -18.1950   22.3730  -17.5200 C.3   265  THR265      0.1862
     83  C        -19.6710   22.2270  -17.1810 C.2   265  THR265      0.2287
     84  O        -20.3930   21.4950  -17.8520 O.2   265  THR265     -0.2866
     85  CB       -18.0350   23.2510  -18.7840 C.3   265  THR265      0.1770
     86  OG1      -16.6600   23.2660  -19.1850 O.3   265  THR265     -0.2211
     87  CG2      -18.4900   24.6830  -18.5100 C.3   265  THR265      0.0375
     88  N        -24.2000   27.8410  -16.6310 N.3   269  ILE269     -0.1245
     89  CA       -23.2550   28.7590  -16.0330 C.3   269  ILE269      0.1561
     90  C        -23.8290   30.1780  -15.9490 C.2   269  ILE269      0.2260
     91  O        -24.2770   30.7490  -16.9450 O.2   269  ILE269     -0.2867
     92  CB       -21.8690   28.7140  -16.7640 C.3   269  ILE269      0.0252
     93  CG1      -21.8420   29.6180  -17.9920 C.3   269  ILE269      0.0019
     94  CG2      -21.5420   27.2970  -17.1960 C.3   269  ILE269      0.0019
     95  CD1      -21.2910   30.9980  -17.6960 C.3   269  ILE269      0.0001
     96  N        -22.6300   33.6950  -14.2520 N.3   271  PRO271     -0.2102
     97  CA       -21.5730   34.4490  -13.5780 C.3   271  PRO271      0.1504
     98  C        -22.0980   35.3090  -12.4320 C.2   271  PRO271      0.2575
     99  O        -23.3030   35.4120  -12.2060 O.2   271  PRO271     -0.2718
    100  CB       -21.0280   35.3340  -14.7000 C.3   271  PRO271      0.0282
    101  CG       -21.3530   34.5780  -15.9380 C.3   271  PRO271      0.0208
    102  CD       -22.7440   34.1160  -15.6560 C.3   271  PRO271      0.0893
    103  N        -21.1720   35.9390  -11.7280 N.am  272  GLU272     -0.1980
    104  CA       -21.5080   36.8220  -10.6230 C.3   272  GLU272      0.1602
    105  C        -22.4890   37.8890  -11.1230 C.2   272  GLU272      0.2287
    106  O        -22.2990   38.4700  -12.1930 O.2   272  GLU272     -0.2864
    107  CB       -20.2300   37.4730  -10.0830 C.3   272  GLU272      0.0415
    108  CG       -19.2800   36.5070   -9.3870 C.3   272  GLU272      0.1163
    109  CD       -19.6370   36.2810   -7.9260 C.2   272  GLU272      0.3649
    110  OE1      -19.0820   37.0090   -7.0610 O.co2 272  GLU272     -0.2457
    111  OE2      -20.4630   35.3840   -7.6390 O.co2 272  GLU272     -0.2457
    112  N        -21.4560   40.9920  -12.9290 N.3   275  LEU275     -0.1245
    113  CA       -20.7780   40.8490  -14.2140 C.3   275  LEU275      0.1561
    114  C        -21.7910   40.4920  -15.3200 C.2   275  LEU275      0.2260
    115  O        -21.4920   40.6060  -16.5030 O.2   275  LEU275     -0.2867
    116  CB       -19.6750   39.7870  -14.1450 C.3   275  LEU275      0.0270
    117  CG       -18.4380   40.0840  -13.2740 C.3   275  LEU275      0.0019
    118  CD1      -17.3930   39.0210  -13.5220 C.3   275  LEU275      0.0001
    119  CD2      -17.8570   41.4470  -13.5960 C.3   275  LEU275      0.0001
    120  N        -22.2900   42.6140  -18.4740 N.3   278  PHE278     -0.1227
    121  CA       -21.1610   42.5370  -19.3720 C.3   278  PHE278      0.1736
    122  C        -21.1340   41.2040  -20.0800 C.2   278  PHE278      0.2595
    123  O        -20.7090   41.1170  -21.2220 O.2   278  PHE278     -0.2718
    124  CB       -19.8680   42.7890  -18.6010 C.3   278  PHE278      0.0547
    125  CG       -19.8580   44.0990  -17.8860 C.ar  278  PHE278     -0.0202
    126  CD1      -19.9280   44.1530  -16.4970 C.ar  278  PHE278     -0.0042
    127  CD2      -19.8510   45.2910  -18.6050 C.ar  278  PHE278     -0.0042
    128  CE1      -19.9970   45.3850  -15.8280 C.ar  278  PHE278     -0.0003
    129  CE2      -19.9210   46.5220  -17.9520 C.ar  278  PHE278     -0.0003
    130  CZ       -19.9950   46.5660  -16.5590 C.ar  278  PHE278     -0.0000
    131  N        -21.6100   40.1690  -19.4010 N.am  279  TYR279     -0.1976
    132  CA       -21.6720   38.8140  -19.9550 C.3   279  TYR279      0.1639
    133  C        -22.6910   38.7850  -21.1070 C.2   279  TYR279      0.2290
    134  O        -22.4670   38.1500  -22.1360 O.2   279  TYR279     -0.2864
    135  CB       -22.0850   37.8470  -18.8430 C.3   279  TYR279      0.0560
    136  CG       -22.3390   36.4160  -19.2550 C.ar  279  TYR279     -0.0198
    137  CD1      -21.3030   35.5900  -19.6920 C.ar  279  TYR279     -0.0009
    138  CD2      -23.6040   35.8550  -19.1040 C.ar  279  TYR279     -0.0009
    139  CE1      -21.5240   34.2360  -19.9530 C.ar  279  TYR279      0.0417
    140  CE2      -23.8330   34.5080  -19.3600 C.ar  279  TYR279      0.0417
    141  CZ       -22.7910   33.7070  -19.7800 C.ar  279  TYR279      0.1957
    142  OH       -23.0360   32.3750  -20.0140 O.3   279  TYR279     -0.2866
    143  N        -21.2070   40.5090  -24.1960 N.3   282  LEU282     -0.1245
    144  CA       -20.2450   39.6120  -24.8450 C.3   282  LEU282      0.1561
    145  C        -20.9890   38.5900  -25.7160 C.2   282  LEU282      0.2260
    146  O        -20.7330   38.4790  -26.9100 O.2   282  LEU282     -0.2867
    147  CB       -19.4010   38.8840  -23.7840 C.3   282  LEU282      0.0270
    148  CG       -18.3110   37.8940  -24.2220 C.3   282  LEU282      0.0019
    149  CD1      -17.2160   38.6070  -24.9910 C.3   282  LEU282      0.0001
    150  CD2      -17.7130   37.2000  -23.0020 C.3   282  LEU282      0.0001
    151  N        -17.3210   44.3810  -25.4270 N.3   295  MET295     -0.1230
    152  CA       -17.4730   44.2620  -23.9870 C.3   295  MET295      0.1702
    153  C        -16.5610   45.2770  -23.2960 C.2   295  MET295      0.2592
    154  O        -17.0250   46.0440  -22.4570 O.2   295  MET295     -0.2718
    155  CB       -17.1330   42.8550  -23.5230 C.3   295  MET295      0.0401
    156  CG       -17.4730   42.6010  -22.0670 C.3   295  MET295      0.0596
    157  SD       -16.8010   41.0320  -21.5280 S.3   295  MET295     -0.1393
    158  CE       -15.0620   41.3900  -21.4540 C.3   295  MET295      0.0692
    159  N        -15.2820   45.3000  -23.6720 N.am  296  PHE296     -0.1976
    160  CA       -14.3370   46.2450  -23.0860 C.3   296  PHE296      0.1639
    161  C        -14.7780   47.6810  -23.3600 C.2   296  PHE296      0.2290
    162  O        -14.5810   48.5750  -22.5280 O.2   296  PHE296     -0.2864
    163  CB       -12.9230   46.0430  -23.6440 C.3   296  PHE296      0.0560
    164  CG       -12.2020   44.8440  -23.0870 C.ar  296  PHE296     -0.0200
    165  CD1      -11.1500   44.2650  -23.7950 C.ar  296  PHE296     -0.0042
    166  CD2      -12.5770   44.2780  -21.8660 C.ar  296  PHE296     -0.0042
    167  CE1      -10.4830   43.1330  -23.2960 C.ar  296  PHE296     -0.0003
    168  CE2      -11.9200   43.1490  -21.3590 C.ar  296  PHE296     -0.0003
    169  CZ       -10.8750   42.5790  -22.0740 C.ar  296  PHE296     -0.0000
    170  N        -17.1780   49.5610  -20.9950 N.3   299  ILE299     -0.1245
    171  CA       -16.5950   50.2140  -19.8410 C.3   299  ILE299      0.1561
    172  C        -15.9000   51.5250  -20.2500 C.2   299  ILE299      0.2260
    173  O        -16.1520   52.5820  -19.6630 O.2   299  ILE299     -0.2867
    174  CB       -15.5820   49.2780  -19.1510 C.3   299  ILE299      0.0252
    175  CG1      -16.2860   48.0210  -18.6510 C.3   299  ILE299      0.0019
    176  CG2      -14.8990   49.9840  -17.9910 C.3   299  ILE299      0.0019
    177  CD1      -15.3230   46.9850  -18.1210 C.3   299  ILE299      0.0001
@<TRIPOS>BOND
     1   146   145    2
     2   145   144    1
     3   151   152    1
     4    76    75    2
     5   149   148    1
     6   144   143    1
     7   144   147    1
     8    75    74    1
     9   148   147    1
    10   148   150    1
    11   152   155    1
    12   152   153    1
    13   165   167   ar
    14   165   164   ar
    15   159   153   am
    16   159   160    1
    17   163   164    1
    18   163   160    1
    19    74    73    1
    20    74    77    1
    21   155   156    1
    22   161   160    1
    23   161   162    2
    24   153   154    2
    25   167   169   ar
    26   164   166   ar
    27    79    78    1
    28    78    77    1
    29    78    80    1
    30   134   133    2
    31   169   168   ar
    32   156   157    1
    33   166   168   ar
    34   157   158    1
    35   123   122    2
    36   133   132    1
    37    61    60    2
    38   170   171    1
    39    63    62    1
    40   172   171    1
    41   172   173    2
    42   122   131   am
    43   122   121    1
    44   142   141    1
    45    64    62    1
    46    60    59    1
    47    60    65   am
    48    59    62    1
    49    59    58    1
    50   132   131    1
    51   132   135    1
    52   139   141   ar
    53   139   137   ar
    54    68    67    2
    55   171   174    1
    56   141   140   ar
    57   137   136   ar
    58   121   124    1
    59   121   120    1
    60   140   138   ar
    61    67    66    1
    62   136   138   ar
    63   136   135    1
    64    86    85    1
    65   174   175    1
    66   174   176    1
    67    52    53   ar
    68    52    50   ar
    69    65    66    1
    70    85    87    1
    71    85    82    1
    72    66    69    1
    73   175   177    1
    74   127   129   ar
    75   127   125   ar
    76   124   125    1
    77    53    51   ar
    78    50    47   ar
    79    93    95    1
    80    93    92    1
    81   129   130   ar
    82   125   126   ar
    83    84    83    2
    84    81    82    1
    85    82    83    1
    86    69    70    1
    87    69    71    1
    88    51    49   ar
    89    94    92    1
    90    43    42    2
    91    47    49   ar
    92    47    45   ar
    93    70    72    1
    94    91    90    2
    95    92    89    1
    96    49    48   ar
    97    88    89    1
    98   130   128   ar
    99   115   114    2
   100   126   128   ar
   101    57    56    2
   102    45    44    1
   103    45    46   ar
   104    44    41    1
   105    42    41    1
   106    42    54   am
   107    89    90    1
   108   101   102    1
   109   101   100    1
   110    41    40    1
   111   102    96    1
   112    48    46   ar
   113    56    55    1
   114   114   113    1
   115    55    54    1
   116   100    97    1
   117    96    97    1
   118   113   116    1
   119   113   112    1
   120   116   117    1
   121    19    17   ar
   122    19    18   ar
   123     8     6    1
   124    17    15   ar
   125     7     5    1
   126   119   117    1
   127    97    98    1
   128    18    16   ar
   129   118   117    1
   130    39    38    1
   131    15    14   ar
   132    16    14   ar
   133     5     6    1
   134     5     2    1
   135    38    37    1
   136    14    13    1
   137    35    34    2
   138    98    99    2
   139    98   103   am
   140   106   105    2
   141    13    10    1
   142   103   104    1
   143    34    33    1
   144    33    32    1
   145    33    36    1
   146     3     2    1
   147     3     4    2
   148     2     1    1
   149   105   104    1
   150    37    36    1
   151   104   107    1
   152    10    11    1
   153    10     9    1
   154   107   108    1
   155    11    12    2
   156    27    29   ar
   157    27    25   ar
   158    29    30   ar
   159   108   109    1
   160    25    24    1
   161    25    26   ar
   162    30    31    1
   163    30    28   ar
   164    24    21    1
   165   109   111   ar
   166   109   110   ar
   167    22    23    2
   168    22    21    1
   169    26    28   ar
   170    21    20    1
