@<TRIPOS>MOLECULE
tmp/1p84C08.pdb
 156 153 0 0 0
SMALL
GASTEIGER

@<TRIPOS>ATOM
      1  N        -22.6720   46.9620   -5.3520 N.3    91  MET91      -0.1245
      2  CA       -23.9800   47.6100   -5.2730 C.3    91  MET91       0.1570
      3  C        -23.7420   49.0960   -5.0030 C.2    91  MET91       0.2261
      4  O        -24.2890   49.9640   -5.6780 O.2    91  MET91      -0.2867
      5  CB       -24.8380   47.0220   -4.1440 C.3    91  MET91       0.0387
      6  CG       -25.2950   45.5760   -4.3250 C.3    91  MET91       0.0595
      7  SD       -26.1940   44.8780   -2.8510 S.3    91  MET91      -0.1393
      8  CE       -26.5990   43.2220   -3.4010 C.3    91  MET91       0.0692
      9  N        -22.0040   51.0360   -8.0590 N.3    94  PHE94      -0.1241
     10  CA       -22.9590   51.3810   -9.1200 C.3    94  PHE94       0.1605
     11  C        -23.7560   52.6390   -8.7140 C.2    94  PHE94       0.2264
     12  O        -23.9920   53.5330   -9.5370 O.2    94  PHE94      -0.2867
     13  CB       -23.9360   50.2190   -9.3990 C.3    94  PHE94       0.0534
     14  CG       -23.3130   49.0200  -10.1020 C.ar   94  PHE94      -0.0203
     15  CD1      -22.3480   49.1800  -11.0950 C.ar   94  PHE94      -0.0042
     16  CD2      -23.7050   47.7290   -9.7660 C.ar   94  PHE94      -0.0042
     17  CE1      -21.7800   48.0800  -11.7380 C.ar   94  PHE94      -0.0003
     18  CE2      -23.1410   46.6160  -10.4090 C.ar   94  PHE94      -0.0003
     19  CZ       -22.1720   46.7960  -11.4000 C.ar   94  PHE94      -0.0000
     20  N        -27.1580   33.4060   -0.7680 N.3   250  THR250     -0.1203
     21  CA       -28.1010   33.8960   -1.7560 C.3   250  THR250      0.1994
     22  C        -27.4430   34.6090   -2.9460 C.2   250  THR250      0.2618
     23  O        -27.9230   34.5020   -4.0750 O.2   250  THR250     -0.2717
     24  CB       -29.1500   34.8090   -1.0980 C.3   250  THR250      0.1784
     25  OG1      -29.9840   34.0100   -0.2510 O.3   250  THR250     -0.2211
     26  CG2      -30.0180   35.5170   -2.1420 C.3   250  THR250      0.0376
     27  N        -26.3270   35.2890   -2.7050 N.am  251  LEU251     -0.1965
     28  CA       -25.6200   36.0080   -3.7580 C.3   251  LEU251      0.1728
     29  C        -24.4670   35.2150   -4.3640 C.2   251  LEU251      0.2617
     30  O        -23.6150   35.7800   -5.0500 O.2   251  LEU251     -0.2715
     31  CB       -25.1140   37.3500   -3.2260 C.3   251  LEU251      0.0311
     32  CG       -26.2000   38.2740   -2.6880 C.3   251  LEU251      0.0022
     33  CD1      -25.5670   39.4440   -1.9600 C.3   251  LEU251      0.0001
     34  CD2      -27.0930   38.7390   -3.8250 C.3   251  LEU251      0.0001
     35  N        -24.4230   33.9190   -4.0910 N.am  252  GLY252     -0.1940
     36  CA       -23.3650   33.0800   -4.6320 C.3   252  GLY252      0.2014
     37  C        -23.9240   32.0440   -5.5860 C.2   252  GLY252      0.2639
     38  O        -25.0870   32.1190   -5.9680 O.2   252  GLY252     -0.2714
     39  N        -23.1060   31.0750   -5.9780 N.am  253  HIS253     -0.1959
     40  CA       -23.5540   30.0240   -6.8940 C.3   253  HIS253      0.1772
     41  C        -23.2560   28.6550   -6.2880 C.2   253  HIS253      0.2462
     42  O        -22.1140   28.3680   -5.9150 O.2   253  HIS253     -0.2730
     43  CB       -22.8240   30.1090   -8.2430 C.3   253  HIS253      0.0785
     44  CG       -22.5850   31.5040   -8.7290 C.ar  253  HIS253      0.0821
     45  ND1      -23.5590   32.2610   -9.3480 N.ar  253  HIS253     -0.2267
     46  CD2      -21.4750   32.2780   -8.6860 C.ar  253  HIS253      0.1154
     47  CE1      -23.0570   33.4440   -9.6620 C.ar  253  HIS253      0.1986
     48  NE2      -21.7940   33.4800   -9.2730 N.ar  253  HIS253     -0.2212
     49  N        -24.2600   27.7660   -6.2680 N.am  254  PRO254     -0.2716
     50  CA       -24.1310   26.4120   -5.7190 C.3   254  PRO254      0.1536
     51  C        -22.9890   25.6320   -6.3590 C.2   254  PRO254      0.2598
     52  O        -22.3510   24.8070   -5.7090 O.2   254  PRO254     -0.2715
     53  CB       -25.4770   25.7830   -6.0610 C.3   254  PRO254      0.0310
     54  CG       -26.4120   26.9550   -6.0320 C.3   254  PRO254      0.0237
     55  CD       -25.6240   27.9990   -6.7690 C.3   254  PRO254      0.0939
     56  N        -22.7060   25.9170   -7.6250 N.am  255  ASP255     -0.1972
     57  CA       -21.6420   25.2010   -8.3200 C.3   255  ASP255      0.1709
     58  C        -20.2650   25.4310   -7.7410 C.2   255  ASP255      0.2293
     59  O        -19.3270   24.6930   -8.0520 O.2   255  ASP255     -0.2864
     60  CB       -21.6590   25.5140   -9.8180 C.3   255  ASP255      0.1436
     61  CG       -22.7490   24.7700  -10.5490 C.2   255  ASP255      0.3671
     62  OD1      -22.8110   23.5300  -10.4300 O.co2 255  ASP255     -0.2456
     63  OD2      -23.5450   25.4230  -11.2420 O.co2 255  ASP255     -0.2456
     64  N        -23.6550   22.4370  -16.7390 N.3   267  ALA267     -0.1231
     65  CA       -24.7000   22.5660  -17.7480 C.3   267  ALA267      0.1694
     66  C        -25.3080   23.9520  -17.7930 C.2   267  ALA267      0.2592
     67  O        -25.8540   24.3600  -18.8110 O.2   267  ALA267     -0.2718
     68  CB       -25.7800   21.5330  -17.5130 C.3   267  ALA267      0.0304
     69  N        -25.2320   24.6680  -16.6810 N.am  268  SER268     -0.1952
     70  CA       -25.7760   26.0160  -16.6190 C.3   268  SER268      0.1924
     71  C        -24.8070   26.9270  -15.8890 C.2   268  SER268      0.2314
     72  O        -24.5990   26.8030  -14.6800 O.2   268  SER268     -0.2863
     73  CB       -27.1320   26.0250  -15.9110 C.3   268  SER268      0.2116
     74  OG       -27.6280   27.3520  -15.8070 O.3   268  SER268     -0.2180
     75  N        -23.9130   30.6860  -14.7230 N.3   270  VAL270     -0.1245
     76  CA       -24.4110   32.0280  -14.4610 C.3   270  VAL270      0.1561
     77  C        -23.3390   32.7380  -13.6390 C.2   270  VAL270      0.2260
     78  O        -23.1070   32.4050  -12.4790 O.2   270  VAL270     -0.2867
     79  CB       -25.7220   32.0010  -13.6740 C.3   270  VAL270      0.0252
     80  CG1      -26.1550   33.4010  -13.3280 C.3   270  VAL270      0.0019
     81  CG2      -26.7960   31.3140  -14.4770 C.3   270  VAL270      0.0019
     82  N        -23.5310   38.1410  -10.3390 N.3   273  TRP273     -0.1241
     83  CA       -24.5550   39.1040  -10.6920 C.3   273  TRP273      0.1605
     84  C        -24.0650   40.4540  -11.1960 C.2   273  TRP273      0.2264
     85  O        -24.7140   41.0600  -12.0360 O.2   273  TRP273     -0.2867
     86  CB       -25.5200   39.3000   -9.5200 C.3   273  TRP273      0.0550
     87  CG       -24.9720   40.1380   -8.3820 C.ar  273  TRP273      0.0003
     88  CD1      -24.3600   39.6850   -7.2460 C.ar  273  TRP273      0.0946
     89  CD2      -24.9870   41.5700   -8.2840 C.ar  273  TRP273      0.0152
     90  NE1      -23.9950   40.7450   -6.4520 N.ar  273  TRP273     -0.2442
     91  CE2      -24.3670   41.9130   -7.0640 C.ar  273  TRP273      0.0810
     92  CE3      -25.4630   42.5970   -9.1120 C.ar  273  TRP273      0.0012
     93  CZ2      -24.2050   43.2430   -6.6510 C.ar  273  TRP273      0.0191
     94  CZ3      -25.2990   43.9230   -8.7010 C.ar  273  TRP273      0.0001
     95  CH2      -24.6760   44.2290   -7.4810 C.ar  273  TRP273      0.0015
     96  N        -23.0090   40.1200  -14.9270 N.3   276  LEU276     -0.1231
     97  CA       -24.0440   39.7260  -15.8780 C.3   276  LEU276      0.1678
     98  C        -24.2770   40.6870  -17.0430 C.2   276  LEU276      0.2434
     99  O        -24.3470   40.2530  -18.1850 O.2   276  LEU276     -0.2733
    100  CB       -25.3700   39.4320  -15.1600 C.3   276  LEU276      0.0284
    101  CG       -25.4600   38.1680  -14.2940 C.3   276  LEU276      0.0019
    102  CD1      -26.8390   38.0960  -13.6320 C.3   276  LEU276      0.0001
    103  CD2      -25.1870   36.9300  -15.1470 C.3   276  LEU276      0.0001
    104  N        -24.4040   42.0010  -16.7730 N.am  277  PRO277     -0.2729
    105  CA       -24.6270   42.9360  -17.8840 C.3   277  PRO277      0.1401
    106  C        -23.5080   42.8730  -18.9270 C.2   277  PRO277      0.2269
    107  O        -23.7490   43.0200  -20.1210 O.2   277  PRO277     -0.2865
    108  CB       -24.6570   44.2940  -17.1860 C.3   277  PRO277      0.0296
    109  CG       -25.2340   43.9560  -15.8450 C.3   277  PRO277      0.0237
    110  CD       -24.4620   42.7070  -15.4790 C.3   277  PRO277      0.0939
    111  N        -29.9520   48.6830  -18.2990 N.3   333  PHE333     -0.1227
    112  CA       -28.7970   48.0240  -17.6870 C.3   333  PHE333      0.1736
    113  C        -29.2560   46.8030  -16.8810 C.2   333  PHE333      0.2595
    114  O        -28.6450   45.7330  -16.9510 O.2   333  PHE333     -0.2718
    115  CB       -28.0530   49.0080  -16.7740 C.3   333  PHE333      0.0547
    116  CG       -26.6950   48.5200  -16.3280 C.ar  333  PHE333     -0.0202
    117  CD1      -26.4320   48.2810  -14.9760 C.ar  333  PHE333     -0.0042
    118  CD2      -25.6740   48.3110  -17.2590 C.ar  333  PHE333     -0.0042
    119  CE1      -25.1760   47.8420  -14.5640 C.ar  333  PHE333     -0.0003
    120  CE2      -24.4190   47.8730  -16.8520 C.ar  333  PHE333     -0.0003
    121  CZ       -24.1670   47.6380  -15.4980 C.ar  333  PHE333     -0.0000
    122  N        -30.3190   46.9760  -16.1000 N.am  334  VAL334     -0.1980
    123  CA       -30.8820   45.8790  -15.3170 C.3   334  VAL334      0.1595
    124  C        -31.3510   44.7720  -16.2840 C.2   334  VAL334      0.2287
    125  O        -31.0900   43.5920  -16.0490 O.2   334  VAL334     -0.2864
    126  CB       -32.0930   46.3670  -14.4670 C.3   334  VAL334      0.0276
    127  CG1      -32.7780   45.1880  -13.7810 C.3   334  VAL334      0.0022
    128  CG2      -31.6330   47.3930  -13.4470 C.3   334  VAL334      0.0022
    129  N        -28.7590   42.6260  -17.5080 N.3   337  GLY337     -0.1210
    130  CA       -28.3960   41.6970  -16.4540 C.3   337  GLY337      0.1956
    131  C        -29.3190   40.4970  -16.4300 C.2   337  GLY337      0.2611
    132  O        -28.8800   39.3660  -16.2530 O.2   337  GLY337     -0.2717
    133  N        -30.6110   40.7480  -16.5920 N.am  338  GLN338     -0.1979
    134  CA       -31.5880   39.6740  -16.6060 C.3   338  GLN338      0.1601
    135  C        -31.3390   38.7400  -17.8170 C.2   338  GLN338      0.2287
    136  O        -31.3800   37.5070  -17.6790 O.2   338  GLN338     -0.2864
    137  CB       -32.9940   40.2690  -16.6160 C.3   338  GLN338      0.0394
    138  CG       -34.1230   39.2480  -16.6350 C.3   338  GLN338      0.0908
    139  CD       -34.0520   38.2270  -15.5040 C.2   338  GLN338      0.2608
    140  OE1      -34.3010   38.5510  -14.3390 O.2   338  GLN338     -0.2717
    141  NE2      -33.7370   36.9790  -15.8520 N.am  338  GLN338     -0.0878
    142  N        -28.6350   36.1590  -17.2900 N.3   341  ALA341     -0.1245
    143  CA       -28.9750   35.0080  -16.4640 C.3   341  ALA341      0.1562
    144  C        -29.8330   33.9730  -17.2080 C.2   341  ALA341      0.2260
    145  O        -30.1340   32.9070  -16.6790 O.2   341  ALA341     -0.2867
    146  CB       -29.6870   35.4690  -15.2220 C.3   341  ALA341      0.0290
    147  N        -30.8170   31.5680  -20.8120 N.3   343  HIS343     -0.1241
    148  CA       -30.1320   30.7400  -21.8040 C.3   343  HIS343      0.1621
    149  C        -30.1220   31.4560  -23.1430 C.2   343  HIS343      0.2264
    150  O        -30.9330   32.3540  -23.3830 O.2   343  HIS343     -0.2867
    151  CB       -30.8320   29.3960  -21.9580 C.3   343  HIS343      0.0745
    152  CG       -30.6430   28.4860  -20.7870 C.ar  343  HIS343      0.0817
    153  ND1      -29.4590   27.8210  -20.5470 N.ar  343  HIS343     -0.2268
    154  CD2      -31.4790   28.1470  -19.7760 C.ar  343  HIS343      0.1154
    155  CE1      -29.5720   27.1130  -19.4360 C.ar  343  HIS343      0.1986
    156  NE2      -30.7880   27.2940  -18.9500 N.ar  343  HIS343     -0.2212
@<TRIPOS>BOND
     1   150   149    2
     2   149   148    1
     3   151   148    1
     4   151   152    1
     5   148   147    1
     6   152   153   ar
     7   152   154   ar
     8   153   155   ar
     9   107   106    2
    10   154   156   ar
    11   155   156   ar
    12   106   105    1
    13    67    66    2
    14   111   112    1
    15    99    98    2
    16   105   108    1
    17   105   104    1
    18   135   136    2
    19   135   134    1
    20    66    65    1
    21    66    69   am
    22    65    68    1
    23    65    64    1
    24   112   113    1
    25   112   115    1
    26   129   130    1
    27   142   143    1
    28   118   120   ar
    29   118   116   ar
    30   144   145    2
    31   144   143    1
    32   108   109    1
    33    98   104   am
    34    98    97    1
    35   114   113    2
    36   113   122   am
    37   120   121   ar
    38   115   116    1
    39   104   110    1
    40    69    70    1
    41   138   137    1
    42   138   139    1
    43    70    73    1
    44    70    71    1
    45   137   134    1
    46   134   133    1
    47   133   131   am
    48   143   146    1
    49   130   131    1
    50   131   132    2
    51   116   117   ar
    52   124   125    2
    53   124   123    1
    54   122   123    1
    55    73    74    1
    56    71    72    2
    57    97   100    1
    58    97    96    1
    59   141   139   am
    60   109   110    1
    61   139   140    2
    62   121   119   ar
    63   123   126    1
    64   100   101    1
    65   103   101    1
    66   117   119   ar
    67    75    76    1
    68    81    79    1
    69   126   127    1
    70   126   128    1
    71    76    79    1
    72    76    77    1
    73   101   102    1
    74    79    80    1
    75    77    78    2
    76    85    84    2
    77    17    19   ar
    78    17    15   ar
    79    19    18   ar
    80    63    61   ar
    81    84    83    1
    82    15    14   ar
    83    83    82    1
    84    83    86    1
    85    61    62   ar
    86    61    60    1
    87    18    16   ar
    88    14    16   ar
    89    14    13    1
    90    60    57    1
    91    47    45   ar
    92    47    48   ar
    93    12    11    2
    94    86    87    1
    95    13    10    1
    96    45    44   ar
    97    48    46   ar
    98    10    11    1
    99    10     9    1
   100    92    94   ar
   101    92    89   ar
   102    44    46   ar
   103    44    43    1
   104    94    95   ar
   105    87    89   ar
   106    87    88   ar
   107    57    58    1
   108    57    56    1
   109    89    91   ar
   110    43    40    1
   111    59    58    2
   112    56    51   am
   113    95    93   ar
   114    88    90   ar
   115    91    93   ar
   116    91    90   ar
   117    40    41    1
   118    40    39    1
   119    55    49    1
   120    55    54    1
   121    51    50    1
   122    51    52    2
   123    41    49   am
   124    41    42    2
   125    49    50    1
   126    53    54    1
   127    53    50    1
   128    39    37   am
   129    38    37    2
   130     4     3    2
   131    37    36    1
   132     1     2    1
   133     2     3    1
   134     2     5    1
   135    30    29    2
   136    36    35    1
   137    29    35   am
   138    29    28    1
   139     6     5    1
   140     6     7    1
   141    23    22    2
   142    34    32    1
   143    28    31    1
   144    28    27    1
   145     8     7    1
   146    31    32    1
   147    22    27   am
   148    22    21    1
   149    32    33    1
   150    26    24    1
   151    21    24    1
   152    21    20    1
   153    24    25    1
