@<TRIPOS>MOLECULE
tmp/1p8dA00.pdb
 248 234 0 0 0
SMALL
GASTEIGER

@<TRIPOS>ATOM
      1  N         59.1410   12.0320  100.3510 N.3    22  ASN22      -0.1240
      2  CA        59.9400   11.8570   99.1480 C.3    22  ASN22       0.1653
      3  C         61.2320   12.6970   99.2740 C.2    22  ASN22       0.2266
      4  O         62.3440   12.2070   99.0400 O.2    22  ASN22      -0.2867
      5  CB        59.1510   12.2680   97.8950 C.3    22  ASN22       0.1155
      6  CG        59.9150   11.9420   96.5720 C.2    22  ASN22       0.2627
      7  OD1       60.1540   10.7770   96.2510 O.2    22  ASN22      -0.2716
      8  ND2       60.3090   12.9770   95.8270 N.am   22  ASN22      -0.0877
      9  N         64.9450   11.0080   98.9310 N.3    26  PHE26      -0.1241
     10  CA        65.6450   11.1850   97.6770 C.3    26  PHE26       0.1605
     11  C         66.2130   12.5670   97.3790 C.2    26  PHE26       0.2264
     12  O         66.6510   12.8410   96.2700 O.2    26  PHE26      -0.2867
     13  CB        64.7370   10.7070   96.5490 C.3    26  PHE26       0.0534
     14  CG        64.5580    9.2040   96.5100 C.ar   26  PHE26      -0.0203
     15  CD1       65.5990    8.3740   96.1220 C.ar   26  PHE26      -0.0042
     16  CD2       63.3660    8.6160   96.8980 C.ar   26  PHE26      -0.0042
     17  CE1       65.4610    6.9820   96.1270 C.ar   26  PHE26      -0.0003
     18  CE2       63.2190    7.2130   96.9050 C.ar   26  PHE26      -0.0003
     19  CZ        64.2730    6.4010   96.5150 C.ar   26  PHE26      -0.0000
     20  N         72.4100   -4.6250   88.8280 N.3    47  PHE47      -0.1241
     21  CA        71.4490   -5.2430   89.7200 C.3    47  PHE47       0.1605
     22  C         71.5230   -4.6650   91.1330 C.2    47  PHE47       0.2264
     23  O         70.4920   -4.5310   91.8210 O.2    47  PHE47      -0.2867
     24  CB        71.6710   -6.7420   89.7350 C.3    47  PHE47       0.0534
     25  CG        70.9030   -7.4580   90.7880 C.ar   47  PHE47      -0.0203
     26  CD1       71.3600   -7.4630   92.1050 C.ar   47  PHE47      -0.0042
     27  CD2       69.7500   -8.1640   90.4570 C.ar   47  PHE47      -0.0042
     28  CE1       70.6830   -8.1600   93.0840 C.ar   47  PHE47      -0.0003
     29  CE2       69.0440   -8.8840   91.4280 C.ar   47  PHE47      -0.0003
     30  CZ        69.5090   -8.8870   92.7460 C.ar   47  PHE47      -0.0000
     31  N         69.6710   -1.1630   91.2470 N.3    50  PHE50      -0.1227
     32  CA        68.2330   -1.1910   91.4550 C.3    50  PHE50       0.1736
     33  C         67.9300   -1.6350   92.8740 C.2    50  PHE50       0.2596
     34  O         67.1970   -0.9500   93.6000 O.2    50  PHE50      -0.2718
     35  CB        67.5530   -2.1510   90.4760 C.3    50  PHE50       0.0547
     36  CG        67.3620   -1.5990   89.0940 C.ar   50  PHE50      -0.0202
     37  CD1       66.4870   -2.1930   88.2280 C.ar   50  PHE50      -0.0042
     38  CD2       68.0740   -0.5120   88.6510 C.ar   50  PHE50      -0.0042
     39  CE1       66.3270   -1.7070   86.9260 C.ar   50  PHE50      -0.0003
     40  CE2       67.9230   -0.0240   87.3600 C.ar   50  PHE50      -0.0003
     41  CZ        67.0540   -0.6170   86.4980 C.ar   50  PHE50      -0.0000
     42  N         68.5030   -2.7710   93.2730 N.am   51  THR51      -0.1953
     43  CA        68.2670   -3.3230   94.6060 C.3    51  THR51       0.1897
     44  C         68.5360   -2.3330   95.7270 C.2    51  THR51       0.2313
     45  O         67.7240   -2.2430   96.6910 O.2    51  THR51      -0.2863
     46  CB        69.1090   -4.5690   94.8680 C.3    51  THR51       0.1794
     47  OG1       70.4790   -4.2880   94.5650 O.3    51  THR51      -0.2208
     48  CG2       68.6030   -5.7090   94.0310 C.3    51  THR51       0.0378
     49  N         68.5920    0.9280   95.3860 N.3    53  LEU53      -0.1231
     50  CA        67.6590    2.0430   95.2610 C.3    53  LEU53       0.1693
     51  C         66.3190    1.5840   95.8410 C.2    53  LEU53       0.2591
     52  O         65.6890    2.2840   96.6230 O.2    53  LEU53      -0.2718
     53  CB        67.4910    2.4660   93.8000 C.3    53  LEU53       0.0284
     54  CG        68.6970    3.1450   93.1550 C.3    53  LEU53       0.0019
     55  CD1       68.5950    3.1280   91.6440 C.3    53  LEU53       0.0001
     56  CD2       68.7840    4.5550   93.6850 C.3    53  LEU53       0.0001
     57  N         65.8790    0.3900   95.4920 N.am   54  ALA54      -0.1980
     58  CA        64.6220   -0.0990   96.0500 C.3    54  ALA54       0.1597
     59  C         64.5750    0.0420   97.5900 C.2    54  ALA54       0.2287
     60  O         63.5360    0.4200   98.1520 O.2    54  ALA54      -0.2864
     61  CB        64.4180   -1.5530   95.6480 C.3    54  ALA54       0.0319
     62  N         63.5090    3.1250   98.6690 N.3    57  SER57      -0.1217
     63  CA        62.0680    3.1560   98.4190 C.3    57  SER57       0.1889
     64  C         61.2670    2.5220   99.5810 C.2    57  SER57       0.2288
     65  O         60.2350    3.0840  100.0330 O.2    57  SER57      -0.2866
     66  CB        61.7210    2.4730   97.0890 C.3    57  SER57       0.2089
     67  OG        60.3290    2.6000   96.7950 O.3    57  SER57      -0.2183
     68  N         61.0170    4.9780  102.2960 N.3    60  GLU60      -0.1245
     69  CA        60.1260    6.0960  101.9810 C.3    60  GLU60       0.1567
     70  C         58.7030    5.6230  102.2130 C.2    60  GLU60       0.2260
     71  O         57.8710    6.3310  102.8460 O.2    60  GLU60      -0.2867
     72  CB        60.2570    6.4940  100.5290 C.3    60  GLU60       0.0388
     73  CG        59.2650    7.5970  100.1310 C.3    60  GLU60       0.1160
     74  CD        59.3520    8.0030   98.6490 C.2    60  GLU60       0.3649
     75  OE1       58.5230    8.8610   98.2360 O.co2  60  GLU60      -0.2457
     76  OE2       60.2350    7.4730   97.9100 O.co2  60  GLU60      -0.2457
     77  N         55.7300   -3.8630   97.0040 N.3    88  ILE88      -0.1245
     78  CA        55.8800   -4.0560   95.5430 C.3    88  ILE88       0.1561
     79  C         54.7410   -3.3800   94.7300 C.2    88  ILE88       0.2260
     80  O         54.9570   -2.7900   93.6570 O.2    88  ILE88      -0.2867
     81  CB        55.9660   -5.5360   95.1580 C.3    88  ILE88       0.0252
     82  CG1       56.4600   -5.6540   93.7430 C.3    88  ILE88       0.0019
     83  CG2       54.5950   -6.1770   95.1990 C.3    88  ILE88       0.0019
     84  CD1       57.6360   -4.8080   93.4360 C.3    88  ILE88       0.0001
     85  N         55.3120    0.3640   94.9120 N.3    91  MET91      -0.1230
     86  CA        56.4500    0.6830   94.0510 C.3    91  MET91       0.1702
     87  C         55.9510    0.8150   92.6040 C.2    91  MET91       0.2592
     88  O         56.2260    1.8160   91.9390 O.2    91  MET91      -0.2718
     89  CB        57.5140   -0.4170   94.1280 C.3    91  MET91       0.0401
     90  CG        58.4080   -0.3370   95.3710 C.3    91  MET91       0.0596
     91  SD        59.4620   -1.7620   95.5220 S.3    91  MET91      -0.1393
     92  CE        60.9070   -1.1150   96.3050 C.3    91  MET91       0.0692
     93  N         55.2150   -0.1960   92.1210 N.am   92  LEU92      -0.1980
     94  CA        54.6780   -0.1650   90.7520 C.3    92  LEU92       0.1596
     95  C         53.6980    1.0110   90.5710 C.2    92  LEU92       0.2287
     96  O         53.4780    1.5120   89.4500 O.2    92  LEU92      -0.2864
     97  CB        53.9830   -1.4890   90.4250 C.3    92  LEU92       0.0297
     98  CG        54.9440   -2.6630   90.4830 C.3    92  LEU92       0.0022
     99  CD1       54.1870   -3.9450   90.3260 C.3    92  LEU92       0.0001
    100  CD2       55.9630   -2.5200   89.4070 C.3    92  LEU92       0.0001
    101  N         54.1720    3.9570   91.9560 N.3    94  GLU94      -0.1231
    102  CA        55.1220    5.0380   91.7700 C.3    94  GLU94       0.1699
    103  C         55.8610    4.9760   90.4270 C.2    94  GLU94       0.2592
    104  O         56.0440    6.0040   89.7330 O.2    94  GLU94      -0.2718
    105  CB        56.1220    5.0290   92.9260 C.3    94  GLU94       0.0402
    106  CG        55.5960    5.5880   94.1950 C.3    94  GLU94       0.1161
    107  CD        55.5910    7.0800   94.2110 C.2    94  GLU94       0.3649
    108  OE1       55.1790    7.6950   93.1920 O.co2  94  GLU94      -0.2457
    109  OE2       55.9920    7.6280   95.2600 O.co2  94  GLU94      -0.2457
    110  N         56.2940    3.7700   90.0830 N.am   95  THR95      -0.1953
    111  CA        56.9940    3.5270   88.8340 C.3    95  THR95       0.1897
    112  C         56.0800    4.0080   87.7140 C.2    95  THR95       0.2313
    113  O         56.5160    4.6570   86.7650 O.2    95  THR95      -0.2863
    114  CB        57.2890    2.0310   88.6690 C.3    95  THR95       0.1794
    115  OG1       57.8760    1.5200   89.8760 O.3    95  THR95      -0.2208
    116  CG2       58.2690    1.8290   87.5840 C.3    95  THR95       0.0378
    117  N         55.7160    7.7900   87.4870 N.3    98  ARG98      -0.1245
    118  CA        56.9620    8.3720   87.0350 C.3    98  ARG98       0.1563
    119  C         57.3320    7.9810   85.6180 C.2    98  ARG98       0.2260
    120  O         58.4850    8.1630   85.1800 O.2    98  ARG98      -0.2867
    121  CB        58.0550    7.9280   88.0140 C.3    98  ARG98       0.0307
    122  CG        58.3770    8.9460   89.0520 C.3    98  ARG98       0.0489
    123  CD        58.5540    8.3840   90.4310 C.3    98  ARG98       0.2205
    124  NE        58.6220    9.4870   91.4010 N.pl3  98  ARG98      -0.0865
    125  CZ        58.0020    9.4420   92.5660 C.cat  98  ARG98       0.5346
    126  NH1       57.3120    8.3500   92.8530 N.pl3  98  ARG98       0.1354
    127  NH2       58.0400   10.4620   93.4140 N.pl3  98  ARG98       0.1354
    128  N         61.2790    5.1080   82.6520 N.3   106  ILE106     -0.1245
    129  CA        60.7760    5.4070   83.9710 C.3   106  ILE106      0.1561
    130  C         61.8740    6.1570   84.6600 C.2   106  ILE106      0.2260
    131  O         62.9930    5.6610   84.8060 O.2   106  ILE106     -0.2867
    132  CB        60.4420    4.1330   84.7620 C.3   106  ILE106      0.0252
    133  CG1       59.1830    3.4910   84.1830 C.3   106  ILE106      0.0019
    134  CG2       60.2240    4.4770   86.2310 C.3   106  ILE106      0.0019
    135  CD1       58.9800    2.0820   84.6340 C.3   106  ILE106      0.0001
    136  N         63.1830    7.5260   88.0020 N.3   108  PHE108     -0.1241
    137  CA        63.0850    7.5090   89.4420 C.3   108  PHE108      0.1605
    138  C         63.3330    8.8610   90.0810 C.2   108  PHE108      0.2264
    139  O         62.5430    9.3140   90.8710 O.2   108  PHE108     -0.2867
    140  CB        64.1150    6.5420   90.0200 C.3   108  PHE108      0.0534
    141  CG        64.0950    5.1810   89.3960 C.ar  108  PHE108     -0.0203
    142  CD1       63.0720    4.8120   88.5110 C.ar  108  PHE108     -0.0042
    143  CD2       65.0740    4.2370   89.7340 C.ar  108  PHE108     -0.0042
    144  CE1       63.0110    3.5090   87.9640 C.ar  108  PHE108     -0.0003
    145  CE2       65.0260    2.9340   89.1990 C.ar  108  PHE108     -0.0003
    146  CZ        63.9830    2.5710   88.3080 C.ar  108  PHE108     -0.0000
    147  N         66.1920   -2.3640   82.5720 N.3   119  PHE119     -0.1241
    148  CA        65.6260   -3.3570   83.4830 C.3   119  PHE119      0.1605
    149  C         66.1260   -4.7330   83.1010 C.2   119  PHE119      0.2264
    150  O         66.4450   -5.5480   83.9710 O.2   119  PHE119     -0.2867
    151  CB        64.1070   -3.3560   83.3750 C.3   119  PHE119      0.0534
    152  CG        63.4610   -2.3160   84.1870 C.ar  119  PHE119     -0.0203
    153  CD1       62.4590   -2.6580   85.0670 C.ar  119  PHE119     -0.0042
    154  CD2       63.8780   -0.9930   84.1100 C.ar  119  PHE119     -0.0042
    155  CE1       61.8770   -1.7020   85.8760 C.ar  119  PHE119     -0.0003
    156  CE2       63.3100   -0.0380   84.9060 C.ar  119  PHE119     -0.0003
    157  CZ        62.3040   -0.3930   85.7940 C.ar  119  PHE119     -0.0000
    158  N         66.5490   -8.2000   85.6600 N.3   124  LEU124     -0.1245
    159  CA        65.1320   -8.5850   85.6810 C.3   124  LEU124      0.1561
    160  C         64.6660   -9.3490   84.4590 C.2   124  LEU124      0.2260
    161  O         65.1720   -9.1490   83.3700 O.2   124  LEU124     -0.2867
    162  CB        64.2580   -7.3470   85.8200 C.3   124  LEU124      0.0270
    163  CG        64.6200   -6.3680   86.9400 C.3   124  LEU124      0.0019
    164  CD1       63.8390   -5.0440   86.7510 C.3   124  LEU124      0.0001
    165  CD2       64.3110   -6.9790   88.2450 C.3   124  LEU124      0.0001
    166  N         58.6460  -10.1180   83.9300 N.3   128  PHE128     -0.1241
    167  CA        58.2970   -9.0830   84.9080 C.3   128  PHE128      0.1605
    168  C         58.2560   -7.6600   84.2830 C.2   128  PHE128      0.2264
    169  O         57.2940   -6.9270   84.4510 O.2   128  PHE128     -0.2867
    170  CB        59.3050   -9.1370   86.0770 C.3   128  PHE128      0.0534
    171  CG        58.9510   -8.2610   87.2190 C.ar  128  PHE128     -0.0203
    172  CD1       57.6360   -8.1900   87.6740 C.ar  128  PHE128     -0.0042
    173  CD2       59.9330   -7.5760   87.9140 C.ar  128  PHE128     -0.0042
    174  CE1       57.3030   -7.4540   88.8190 C.ar  128  PHE128     -0.0003
    175  CE2       59.6110   -6.8300   89.0750 C.ar  128  PHE128     -0.0003
    176  CZ        58.2890   -6.7770   89.5240 C.ar  128  PHE128     -0.0000
    177  N         55.0590   -4.5570   83.8800 N.3   132  ILE132     -0.1245
    178  CA        55.1220   -3.2830   84.5750 C.3   132  ILE132      0.1561
    179  C         55.0430   -2.1040   83.6060 C.2   132  ILE132      0.2260
    180  O         54.4200   -1.0650   83.8920 O.2   132  ILE132     -0.2867
    181  CB        56.3540   -3.1260   85.5290 C.3   132  ILE132      0.0252
    182  CG1       57.0420   -1.8150   85.2340 C.3   132  ILE132      0.0019
    183  CG2       57.2640   -4.2920   85.4870 C.3   132  ILE132      0.0019
    184  CD1       58.3540   -1.6740   85.9650 C.3   132  ILE132      0.0001
    185  N         56.0940  -10.7100   90.2320 N.3   214  HIS214     -0.1241
    186  CA        57.2720  -10.2430   90.9590 C.3   214  HIS214      0.1621
    187  C         57.7830  -11.3030   91.9030 C.2   214  HIS214      0.2264
    188  O         58.9620  -11.4140   92.1680 O.2   214  HIS214     -0.2867
    189  CB        56.9300   -9.0190   91.7600 C.3   214  HIS214      0.0745
    190  CG        57.8900   -8.7500   92.8750 C.ar  214  HIS214      0.0817
    191  ND1       57.6060   -9.0520   94.1920 N.ar  214  HIS214     -0.2268
    192  CD2       59.1380   -8.2320   92.8680 C.ar  214  HIS214      0.1154
    193  CE1       58.6380   -8.7280   94.9470 C.ar  214  HIS214      0.1986
    194  NE2       59.5810   -8.2280   94.1700 N.ar  214  HIS214     -0.2212
    195  N         59.6210  -13.5460   90.0360 N.3   217  GLN217     -0.1231
    196  CA        60.8440  -12.8640   89.6580 C.3   217  GLN217      0.1698
    197  C         61.8480  -13.0470   90.7860 C.2   217  GLN217      0.2592
    198  O         63.0410  -13.1240   90.5390 O.2   217  GLN217     -0.2718
    199  CB        60.5660  -11.3850   89.4600 C.3   217  GLN217      0.0381
    200  CG        61.7910  -10.5250   89.3900 C.3   217  GLN217      0.0905
    201  CD        62.6810  -10.9210   88.2630 C.2   217  GLN217      0.2608
    202  OE1       62.5720  -10.3970   87.1400 O.2   217  GLN217     -0.2717
    203  NE2       63.5660  -11.8760   88.5390 N.am  217  GLN217     -0.0878
    204  N         61.3500  -13.1060   92.0230 N.am  218  VAL218     -0.1980
    205  CA        62.1770  -13.2890   93.2220 C.3   218  VAL218      0.1595
    206  C         62.6450  -14.7330   93.2340 C.2   218  VAL218      0.2287
    207  O         63.8280  -15.0350   93.4030 O.2   218  VAL218     -0.2864
    208  CB        61.3580  -13.0370   94.5240 C.3   218  VAL218      0.0276
    209  CG1       62.1930  -13.3430   95.7530 C.3   218  VAL218      0.0022
    210  CG2       60.9000  -11.5950   94.5830 C.3   218  VAL218      0.0022
    211  N         65.0870  -15.2460   90.8370 N.3   221  LEU221     -0.1245
    212  CA        66.2660  -14.4620   91.1740 C.3   221  LEU221      0.1561
    213  C         67.2100  -15.3170   92.0000 C.2   221  LEU221      0.2260
    214  O         68.4140  -15.3720   91.7790 O.2   221  LEU221     -0.2867
    215  CB        65.8460  -13.2620   92.0000 C.3   221  LEU221      0.0270
    216  CG        65.7500  -11.9600   91.2050 C.3   221  LEU221      0.0019
    217  CD1       65.5760  -10.7930   92.1390 C.3   221  LEU221      0.0001
    218  CD2       67.0110  -11.7360   90.3960 C.3   221  LEU221      0.0001
    219  N         69.0250  -10.8830   97.2060 N.3   228  LEU228     -0.1245
    220  CA        68.4760   -9.6090   97.6560 C.3   228  LEU228      0.1561
    221  C         69.0850   -9.1190   98.9660 C.2   228  LEU228      0.2260
    222  O         69.1960   -9.8780   99.9100 O.2   228  LEU228     -0.2867
    223  CB        66.9620   -9.7540   97.8200 C.3   228  LEU228      0.0270
    224  CG        66.2640  -10.4530   96.6490 C.3   228  LEU228      0.0019
    225  CD1       64.7670  -10.7020   96.9590 C.3   228  LEU228      0.0001
    226  CD2       66.4540   -9.5810   95.3950 C.3   228  LEU228      0.0001
    227  N         65.2060   -6.1770  101.6600 N.3   232  LEU232     -0.1245
    228  CA        64.3270   -6.6650  100.6050 C.3   232  LEU232      0.1561
    229  C         64.0400   -8.1240  100.8310 C.2   232  LEU232      0.2260
    230  O         62.8870   -8.5630  100.8290 O.2   232  LEU232     -0.2867
    231  CB        64.9800   -6.4880   99.2360 C.3   232  LEU232      0.0270
    232  CG        65.2590   -5.0220   98.9300 C.3   232  LEU232      0.0019
    233  CD1       65.9270   -4.8330   97.5580 C.3   232  LEU232      0.0001
    234  CD2       63.9260   -4.3030   98.9730 C.3   232  LEU232      0.0001
    235  N         60.4840  -10.0060  100.7980 N.3   236  TRP236     -0.1241
    236  CA        60.2290  -10.7860   99.5930 C.3   236  TRP236      0.1605
    237  C         60.7090  -12.2100   99.5390 C.2   236  TRP236      0.2264
    238  O         60.0940  -13.0600   98.8850 O.2   236  TRP236     -0.2867
    239  CB        60.7780  -10.0320   98.3660 C.3   236  TRP236      0.0550
    240  CG        60.1660   -8.6790   98.2110 C.ar  236  TRP236      0.0003
    241  CD1       58.9540   -8.2770   98.7010 C.ar  236  TRP236      0.0946
    242  CD2       60.7170   -7.5490   97.5260 C.ar  236  TRP236      0.0152
    243  NE1       58.7150   -6.9720   98.3700 N.ar  236  TRP236     -0.2442
    244  CE2       59.7760   -6.4950   97.6510 C.ar  236  TRP236      0.0810
    245  CE3       61.9040   -7.3220   96.8240 C.ar  236  TRP236      0.0012
    246  CZ2       59.9940   -5.2230   97.0920 C.ar  236  TRP236      0.0191
    247  CZ3       62.1130   -6.0710   96.2770 C.ar  236  TRP236      0.0001
    248  CH2       61.1560   -5.0310   96.4140 C.ar  236  TRP236      0.0015
@<TRIPOS>BOND
     1   147   148    1
     2   128   129    1
     3   149   148    1
     4   149   150    2
     5   161   160    2
     6   151   148    1
     7   151   152    1
     8   179   180    2
     9   179   178    1
    10   177   178    1
    11   166   167    1
    12   129   130    1
    13   129   132    1
    14   154   152   ar
    15   154   156   ar
    16   133   135    1
    17   133   132    1
    18   152   153   ar
    19   168   169    2
    20   168   167    1
    21   160   159    1
    22   178   181    1
    23   130   131    2
    24   132   134    1
    25   156   157   ar
    26   167   170    1
    27   153   155   ar
    28   120   119    2
    29   182   181    1
    30   182   184    1
    31   183   181    1
    32   119   118    1
    33   158   159    1
    34   159   162    1
    35   157   155   ar
    36   162   163    1
    37   170   171    1
    38    41    39   ar
    39    41    40   ar
    40   164   163    1
    41   113   112    2
    42    39    37   ar
    43   163   165    1
    44   118   117    1
    45   118   121    1
    46   202   201    2
    47   171   172   ar
    48   171   173   ar
    49    40    38   ar
    50   116   114    1
    51   172   174   ar
    52   112   111    1
    53   173   175   ar
    54   144   146   ar
    55   144   142   ar
    56   136   137    1
    57   121   122    1
    58    37    36   ar
    59   201   203   am
    60   201   200    1
    61   146   145   ar
    62   142   141   ar
    63    38    36   ar
    64   114   111    1
    65   114   115    1
    66   174   176   ar
    67    20    21    1
    68   111   110    1
    69   122   123    1
    70   175   176   ar
    71    36    35    1
    72   145   143   ar
    73   200   199    1
    74   141   143   ar
    75   141   140    1
    76   100    98    1
    77   137   140    1
    78   137   138    1
    79    96    95    2
    80   199   196    1
    81   196   195    1
    82   196   197    1
    83    21    24    1
    84    21    22    1
    85   104   103    2
    86    24    25    1
    87   138   139    2
    88   110   103   am
    89   185   186    1
    90    99    98    1
    91   218   216    1
    92    97    98    1
    93    97    94    1
    94   103   102    1
    95   123   124    1
    96    27    25   ar
    97    27    29   ar
    98    35    32    1
    99   198   197    2
   100    95    94    1
   101    94    93    1
   102   197   204   am
   103    25    26   ar
   104   211   212    1
   105   186   189    1
   106   186   187    1
   107    22    23    2
   108   212   213    1
   109   212   215    1
   110   216   215    1
   111   216   217    1
   112    31    32    1
   113   124   125    2
   114    29    30   ar
   115    32    33    1
   116    55    54    1
   117   189   190    1
   118   102   101    1
   119   102   105    1
   120   214   213    2
   121   187   188    2
   122    88    87    2
   123   204   205    1
   124    26    28   ar
   125    93    87   am
   126   125   126    1
   127   125   127    1
   128    87    86    1
   129    30    28   ar
   130   192   190   ar
   131   192   194   ar
   132    33    42   am
   133    33    34    2
   134   190   191   ar
   135   105   106    1
   136    54    56    1
   137    54    53    1
   138   108   107   ar
   139   205   206    1
   140   205   208    1
   141   206   207    2
   142    42    43    1
   143    84    82    1
   144    80    79    2
   145    82    81    1
   146    53    50    1
   147    48    46    1
   148    86    89    1
   149    86    85    1
   150    89    90    1
   151   194   193   ar
   152   191   193   ar
   153   106   107    1
   154   107   109   ar
   155   208   210    1
   156   208   209    1
   157    47    46    1
   158    43    46    1
   159    43    44    1
   160    79    78    1
   161    81    83    1
   162    81    78    1
   163    50    49    1
   164    50    51    1
   165    90    91    1
   166   226   224    1
   167    57    51   am
   168    57    58    1
   169    91    92    1
   170    78    77    1
   171    61    58    1
   172    44    45    2
   173     8     6   am
   174    51    52    2
   175    58    59    1
   176    15    17   ar
   177    15    14   ar
   178    17    19   ar
   179     7     6    2
   180    12    11    2
   181   247   248   ar
   182   247   245   ar
   183   248   246   ar
   184    14    13    1
   185    14    16   ar
   186    19    18   ar
   187    13    10    1
   188     6     5    1
   189   224   225    1
   190   224   223    1
   191    67    66    1
   192   245   242   ar
   193    16    18   ar
   194    66    63    1
   195   246   244   ar
   196   219   220    1
   197    11    10    1
   198   242   244   ar
   199   242   240   ar
   200   233   232    1
   201    59    60    2
   202   244   243   ar
   203   220   223    1
   204   220   221    1
   205    10     9    1
   206     5     2    1
   207    76    74   ar
   208   240   239    1
   209   240   241   ar
   210    75    74   ar
   211   239   236    1
   212   243   241   ar
   213    63    62    1
   214    63    64    1
   215    74    73    1
   216   238   237    2
   217   232   234    1
   218   232   231    1
   219   221   222    2
   220     4     3    2
   221     2     3    1
   222     2     1    1
   223   231   228    1
   224   237   236    1
   225    64    65    2
   226   236   235    1
   227    73    72    1
   228    72    69    1
   229   228   229    1
   230   228   227    1
   231   230   229    2
   232    69    70    1
   233    69    68    1
   234    70    71    2
