@<TRIPOS>MOLECULE
tmp/1p8jD01.pdb
 218 212 0 0 0
SMALL
GASTEIGER

@<TRIPOS>ATOM
      1  N         44.6910  -16.5170   79.2400 N.3    45  ASP45      -0.1225
      2  CA        45.7530  -15.7390   79.8660 C.3    45  ASP45       0.1805
      3  C         45.8450  -14.3050   79.3150 C.2    45  ASP45       0.2597
      4  O         44.8330  -13.6370   79.1060 O.2    45  ASP45      -0.2718
      5  CB        47.0840  -16.4730   79.6450 C.3    45  ASP45       0.1424
      6  CG        48.0660  -16.2760   80.7840 C.2    45  ASP45       0.3668
      7  OD1       48.4040  -17.2880   81.4500 O.co2  45  ASP45      -0.2456
      8  OD2       48.5060  -15.1230   81.0110 O.co2  45  ASP45      -0.2456
      9  N         47.0670  -13.8360   79.0770 N.am   46  ASP46      -0.1974
     10  CA        47.2810  -12.4840   78.5630 C.3    46  ASP46       0.1709
     11  C         47.5040  -12.4520   77.0490 C.2    46  ASP46       0.2293
     12  O         48.0290  -11.4720   76.5160 O.2    46  ASP46      -0.2864
     13  CB        48.4810  -11.8360   79.2580 C.3    46  ASP46       0.1436
     14  CG        49.7290  -12.6880   79.1740 C.2    46  ASP46       0.3671
     15  OD1       49.7470  -13.6130   78.3280 O.co2  46  ASP46      -0.2456
     16  OD2       50.6880  -12.4310   79.9440 O.co2  46  ASP46      -0.2456
     17  N         55.8610   -8.0460   79.8860 N.3    83  ASP83      -0.1225
     18  CA        54.9280   -8.4110   80.9460 C.3    83  ASP83       0.1805
     19  C         53.8850   -9.4270   80.4930 C.2    83  ASP83       0.2597
     20  O         53.4080  -10.2350   81.2950 O.2    83  ASP83      -0.2718
     21  CB        54.1900   -7.1570   81.4400 C.3    83  ASP83       0.1424
     22  CG        55.1320   -6.0010   81.7420 C.2    83  ASP83       0.3668
     23  OD1       55.8340   -6.0670   82.7810 O.co2  83  ASP83      -0.2456
     24  OD2       55.1780   -5.0340   80.9360 O.co2  83  ASP83      -0.2456
     25  N         53.5320   -9.3870   79.2120 N.am   84  ASN84      -0.1974
     26  CA        52.5060  -10.2820   78.6840 C.3    84  ASN84       0.1688
     27  C         52.9960  -11.5040   77.9190 C.2    84  ASN84       0.2292
     28  O         52.4510  -11.8590   76.8750 O.2    84  ASN84      -0.2864
     29  CB        51.5380   -9.4780   77.8230 C.3    84  ASN84       0.1181
     30  CG        50.9230   -8.3290   78.5890 C.2    84  ASN84       0.2629
     31  OD1       50.3510   -8.5280   79.6680 O.2    84  ASN84      -0.2716
     32  ND2       51.0440   -7.1190   78.0520 N.am   84  ASN84      -0.0877
     33  N         53.1740  -14.4330   79.5600 N.3    86  HIS86      -0.1241
     34  CA        52.5740  -15.5520   80.2840 C.3    86  HIS86       0.1621
     35  C         51.7980  -16.5490   79.4120 C.2    86  HIS86       0.2264
     36  O         52.0500  -17.7580   79.4550 O.2    86  HIS86      -0.2867
     37  CB        51.6870  -15.0080   81.4140 C.3    86  HIS86       0.0745
     38  CG        51.5920  -15.9170   82.6060 C.ar   86  HIS86       0.0817
     39  ND1       50.5670  -16.8320   82.7730 N.ar   86  HIS86      -0.2268
     40  CD2       52.4010  -16.0590   83.6850 C.ar   86  HIS86       0.1154
     41  CE1       50.7450  -17.4960   83.9030 C.ar   86  HIS86       0.1986
     42  NE2       51.8470  -17.0420   84.4670 N.ar   86  HIS86      -0.2212
     43  N         43.4530  -11.2930   80.5490 N.3   119  LEU119     -0.1231
     44  CA        44.0350  -10.8340   81.7970 C.3   119  LEU119      0.1693
     45  C         44.6540   -9.4580   81.6640 C.2   119  LEU119      0.2592
     46  O         44.9500   -8.8070   82.6720 O.2   119  LEU119     -0.2718
     47  CB        45.1060  -11.8090   82.2770 C.3   119  LEU119      0.0284
     48  CG        44.6740  -13.2030   82.7260 C.3   119  LEU119      0.0019
     49  CD1       45.9060  -13.9940   83.1530 C.3   119  LEU119      0.0001
     50  CD2       43.6830  -13.0850   83.8750 C.3   119  LEU119      0.0001
     51  N         44.8510   -9.0090   80.4280 N.am  120  ASP120     -0.1974
     52  CA        45.4700   -7.7090   80.2070 C.3   120  ASP120      0.1709
     53  C         44.4540   -6.5770   80.2350 C.2   120  ASP120      0.2293
     54  O         44.2430   -5.8850   79.2340 O.2   120  ASP120     -0.2864
     55  CB        46.2240   -7.7030   78.8780 C.3   120  ASP120      0.1436
     56  CG        47.2340   -6.5690   78.7820 C.2   120  ASP120      0.3671
     57  OD1       47.8360   -6.4050   77.6970 O.co2 120  ASP120     -0.2456
     58  OD2       47.4310   -5.8460   79.7820 O.co2 120  ASP120     -0.2456
     59  N         39.7330   -7.6030   84.8100 N.3   123  VAL123     -0.1245
     60  CA        39.1990   -8.9460   84.6800 C.3   123  VAL123      0.1561
     61  C         37.8730   -9.0180   85.4120 C.2   123  VAL123      0.2260
     62  O         37.7950   -9.4120   86.5780 O.2   123  VAL123     -0.2867
     63  CB        40.1650   -9.9800   85.2520 C.3   123  VAL123      0.0252
     64  CG1       39.6710  -11.3620   84.9320 C.3   123  VAL123      0.0019
     65  CG2       41.5610   -9.7600   84.6710 C.3   123  VAL123      0.0019
     66  N         35.5790  -13.1960   82.5590 N.3   128  GLU128     -0.1245
     67  CA        35.8960  -14.5810   82.8780 C.3   128  GLU128      0.1567
     68  C         34.8470  -15.5120   82.2490 C.2   128  GLU128      0.2260
     69  O         35.1890  -16.5250   81.6480 O.2   128  GLU128     -0.2867
     70  CB        35.9380  -14.7790   84.3950 C.3   128  GLU128      0.0388
     71  CG        36.8690  -13.8230   85.1330 C.3   128  GLU128      0.1160
     72  CD        37.1190  -14.2690   86.5650 C.2   128  GLU128      0.3649
     73  OE1       36.2270  -14.9380   87.1290 O.co2 128  GLU128     -0.2457
     74  OE2       38.1930  -13.9520   87.1280 O.co2 128  GLU128     -0.2457
     75  N         46.1190  -20.4340   84.0890 N.3   145  SER145     -0.1202
     76  CA        47.2010  -20.2500   85.0510 C.3   145  SER145      0.2020
     77  C         47.0890  -18.8680   85.6890 C.2   145  SER145      0.2619
     78  O         47.9310  -17.9880   85.4680 O.2   145  SER145     -0.2717
     79  CB        48.5670  -20.3790   84.3730 C.3   145  SER145      0.2103
     80  OG        48.7760  -21.7000   83.9070 O.3   145  SER145     -0.2182
     81  N         46.0320  -18.6800   86.4750 N.am  146  TRP146     -0.1961
     82  CA        45.8030  -17.4210   87.1580 C.3   146  TRP146      0.1771
     83  C         44.7320  -17.6290   88.1950 C.2   146  TRP146      0.2620
     84  O         44.0840  -18.6750   88.2180 O.2   146  TRP146     -0.2715
     85  CB        45.3610  -16.3260   86.1780 C.3   146  TRP146      0.0590
     86  CG        44.2300  -16.7080   85.2500 C.ar  146  TRP146      0.0006
     87  CD1       44.3450  -17.1780   83.9680 C.ar  146  TRP146      0.0946
     88  CD2       42.8200  -16.6280   85.5190 C.ar  146  TRP146      0.0152
     89  NE1       43.0970  -17.3910   83.4260 N.ar  146  TRP146     -0.2442
     90  CE2       42.1450  -17.0610   84.3560 C.ar  146  TRP146      0.0810
     91  CE3       42.0620  -16.2300   86.6290 C.ar  146  TRP146      0.0012
     92  CZ2       40.7450  -17.1040   84.2700 C.ar  146  TRP146      0.0191
     93  CZ3       40.6650  -16.2750   86.5420 C.ar  146  TRP146      0.0001
     94  CH2       40.0260  -16.7090   85.3720 C.ar  146  TRP146      0.0015
     95  N         44.5490  -16.6310   89.0540 N.am  147  GLY147     -0.1940
     96  CA        43.5430  -16.7230   90.0960 C.3   147  GLY147      0.1998
     97  C         43.6390  -15.5280   91.0210 C.2   147  GLY147      0.2481
     98  O         44.3520  -14.5660   90.7180 O.2   147  GLY147     -0.2729
     99  N         42.9320  -15.5530   92.1580 N.am  148  PRO148     -0.2715
    100  CA        42.9760  -14.4380   93.1060 C.3   148  PRO148      0.1536
    101  C         44.4070  -14.2590   93.6250 C.2   148  PRO148      0.2598
    102  O         45.2230  -15.1900   93.5850 O.2   148  PRO148     -0.2715
    103  CB        42.0260  -14.8810   94.2150 C.3   148  PRO148      0.0310
    104  CG        41.1280  -15.8780   93.5400 C.3   148  PRO148      0.0237
    105  CD        42.0720  -16.6350   92.6600 C.3   148  PRO148      0.0939
    106  N         44.7010  -13.0640   94.1180 N.am  149  GLU149     -0.1964
    107  CA        46.0220  -12.7550   94.6360 C.3   149  GLU149      0.1733
    108  C         46.5280  -13.8550   95.5840 C.2   149  GLU149      0.2616
    109  O         45.7830  -14.3590   96.4330 O.2   149  GLU149     -0.2715
    110  CB        45.9510  -11.4030   95.3380 C.3   149  GLU149      0.0429
    111  CG        47.2780  -10.7640   95.6350 C.3   149  GLU149      0.1163
    112  CD        47.1230   -9.3510   96.1710 C.2   149  GLU149      0.3649
    113  OE1       48.1600   -8.7450   96.5240 O.co2 149  GLU149     -0.2457
    114  OE2       45.9730   -8.8480   96.2340 O.co2 149  GLU149     -0.2457
    115  N         47.7940  -14.2380   95.4200 N.am  150  ASP150     -0.1971
    116  CA        48.3900  -15.2740   96.2600 C.3   150  ASP150      0.1709
    117  C         49.1990  -14.6610   97.3970 C.2   150  ASP150      0.2293
    118  O         50.3520  -15.0380   97.6080 O.2   150  ASP150     -0.2864
    119  CB        49.3150  -16.1730   95.4420 C.3   150  ASP150      0.1436
    120  CG        48.5730  -17.0270   94.4370 C.2   150  ASP150      0.3671
    121  OD1       47.4980  -17.5820   94.7860 O.co2 150  ASP150     -0.2456
    122  OD2       49.0840  -17.1540   93.3010 O.co2 150  ASP150     -0.2456
    123  N         38.7230  -15.5430   97.6580 N.3   156  ASP156     -0.1225
    124  CA        37.9470  -15.0620   96.5340 C.3   156  ASP156      0.1805
    125  C         37.7200  -16.1680   95.5180 C.2   156  ASP156      0.2598
    126  O         38.4830  -17.1240   95.4430 O.2   156  ASP156     -0.2718
    127  CB        38.6820  -13.8870   95.9060 C.3   156  ASP156      0.1424
    128  CG        37.8090  -13.0830   94.9790 C.2   156  ASP156      0.3668
    129  OD1       36.5750  -13.0760   95.1870 O.co2 156  ASP156     -0.2456
    130  OD2       38.3580  -12.4430   94.0540 O.co2 156  ASP156     -0.2456
    131  N         36.6590  -16.0420   94.7370 N.am  157  GLY157     -0.1957
    132  CA        36.3570  -17.0600   93.7490 C.3   157  GLY157      0.1869
    133  C         35.5280  -16.5000   92.6110 C.2   157  GLY157      0.2309
    134  O         35.3050  -15.2870   92.5390 O.2   157  GLY157     -0.2863
    135  N         45.9550  -23.9150   87.5770 N.3   184  ALA184     -0.1231
    136  CA        47.2120  -23.8730   88.3150 C.3   184  ALA184      0.1694
    137  C         46.8250  -23.6050   89.7780 C.2   184  ALA184      0.2593
    138  O         46.1230  -22.6320   90.0740 O.2   184  ALA184     -0.2718
    139  CB        48.0720  -22.7570   87.7880 C.3   184  ALA184      0.0304
    140  N         47.2850  -24.4470   90.7000 N.am  185  SER185     -0.1938
    141  CA        46.8930  -24.2930   92.1030 C.3   185  SER185      0.2055
    142  C         47.3490  -23.0440   92.8470 C.2   185  SER185      0.2644
    143  O         46.7610  -22.7080   93.8730 O.2   185  SER185     -0.2714
    144  CB        47.2790  -25.5360   92.9220 C.3   185  SER185      0.2130
    145  OG        48.6810  -25.6380   93.0930 O.3   185  SER185     -0.2179
    146  N         48.3790  -22.3540   92.3740 N.am  186  GLY186     -0.1939
    147  CA        48.7760  -21.1450   93.0770 C.3   186  GLY186      0.2014
    148  C         50.2410  -21.0580   93.4300 C.2   186  GLY186      0.2638
    149  O         50.8780  -22.0830   93.6510 O.2   186  GLY186     -0.2714
    150  N         50.7740  -19.8360   93.4890 N.am  187  ASN187     -0.1972
    151  CA        52.1750  -19.6280   93.8150 C.3   187  ASN187      0.1688
    152  C         52.3890  -18.9250   95.1550 C.2   187  ASN187      0.2292
    153  O         53.4560  -18.3510   95.3940 O.2   187  ASN187     -0.2864
    154  CB        52.8440  -18.7990   92.7250 C.3   187  ASN187      0.1181
    155  CG        52.7780  -19.4570   91.3610 C.2   187  ASN187      0.2629
    156  OD1       52.8740  -20.6800   91.2360 O.2   187  ASN187     -0.2716
    157  ND2       52.6420  -18.6410   90.3260 N.am  187  ASN187     -0.0877
    158  N         40.9290  -20.2590   97.1940 N.3   198  ASP198     -0.1239
    159  CA        40.8900  -19.8430   95.7980 C.3   198  ASP198      0.1674
    160  C         39.6990  -20.6000   95.1860 C.2   198  ASP198      0.2266
    161  O         39.7740  -21.8050   94.9460 O.2   198  ASP198     -0.2867
    162  CB        42.1960  -20.2520   95.1190 C.3   198  ASP198      0.1410
    163  CG        42.2100  -19.9540   93.6350 C.2   198  ASP198      0.3668
    164  OD1       41.1130  -19.8680   93.0390 O.co2 198  ASP198     -0.2456
    165  OD2       43.3220  -19.8270   93.0570 O.co2 198  ASP198     -0.2456
    166  N         38.6140  -20.8160   92.2920 N.3   200  TYR200     -0.1227
    167  CA        38.7890  -21.4160   90.9750 C.3   200  TYR200      0.1736
    168  C         39.4140  -22.7920   91.1190 C.2   200  TYR200      0.2596
    169  O         38.9540  -23.7620   90.5280 O.2   200  TYR200     -0.2718
    170  CB        39.6530  -20.5230   90.0710 C.3   200  TYR200      0.0548
    171  CG        39.0200  -19.1700   89.8320 C.ar  200  TYR200     -0.0200
    172  CD1       39.1280  -18.1560   90.7830 C.ar  200  TYR200     -0.0009
    173  CD2       38.2470  -18.9260   88.6930 C.ar  200  TYR200     -0.0009
    174  CE1       38.4840  -16.9360   90.6180 C.ar  200  TYR200      0.0417
    175  CE2       37.5960  -17.7080   88.5150 C.ar  200  TYR200      0.0417
    176  CZ        37.7200  -16.7150   89.4890 C.ar  200  TYR200      0.1957
    177  OH        37.0850  -15.5030   89.3520 O.3   200  TYR200     -0.2866
    178  N         40.4670  -22.8810   91.9110 N.am  201  THR201     -0.1953
    179  CA        41.1270  -24.1520   92.1180 C.3   201  THR201      0.1897
    180  C         40.2810  -25.0400   93.0170 C.2   201  THR201      0.2313
    181  O         40.2710  -26.2590   92.8790 O.2   201  THR201     -0.2863
    182  CB        42.4860  -23.9390   92.7720 C.3   201  THR201      0.1794
    183  OG1       42.3290  -23.1090   93.9250 O.3   201  THR201     -0.2208
    184  CG2       43.4320  -23.2590   91.8140 C.3   201  THR201      0.0378
    185  N         60.9130  -21.1620   82.5210 N.3   256  HIS256     -0.1226
    186  CA        59.5300  -20.8750   82.8720 C.3   256  HIS256      0.1752
    187  C         59.3740  -21.5270   84.2450 C.2   256  HIS256      0.2597
    188  O         59.8800  -22.6370   84.4760 O.2   256  HIS256     -0.2718
    189  CB        58.5390  -21.5000   81.8920 C.3   256  HIS256      0.0759
    190  CG        57.1370  -21.0100   82.0850 C.ar  256  HIS256      0.0818
    191  ND1       56.0300  -21.7120   81.6560 N.ar  256  HIS256     -0.2268
    192  CD2       56.6650  -19.8800   82.6660 C.ar  256  HIS256      0.1154
    193  CE1       54.9360  -21.0360   81.9660 C.ar  256  HIS256      0.1986
    194  NE2       55.2950  -19.9190   82.5790 N.ar  256  HIS256     -0.2212
    195  N         58.6600  -20.8580   85.1450 N.am  257  THR257     -0.1939
    196  CA        58.5160  -21.3540   86.5080 C.3   257  THR257      0.2028
    197  C         57.0940  -21.3120   87.0620 C.2   257  THR257      0.2643
    198  O         56.1580  -20.8670   86.3930 O.2   257  THR257     -0.2714
    199  CB        59.3840  -20.5060   87.4350 C.3   257  THR257      0.1808
    200  OG1       58.9090  -19.1500   87.3910 O.3   257  THR257     -0.2208
    201  CG2       60.8420  -20.5170   86.9750 C.3   257  THR257      0.0379
    202  N         56.9580  -21.7810   88.3020 N.am  258  GLY258     -0.1939
    203  CA        55.6840  -21.7600   88.9960 C.3   258  GLY258      0.2014
    204  C         54.6350  -22.7520   88.5590 C.2   258  GLY258      0.2640
    205  O         54.8340  -23.5310   87.6240 O.2   258  GLY258     -0.2714
    206  N         53.5050  -22.7210   89.2530 N.am  259  THR259     -0.1936
    207  CA        52.4130  -23.6140   88.9320 C.3   259  THR259      0.2028
    208  C         51.8360  -23.2960   87.5510 C.2   259  THR259      0.2642
    209  O         51.0770  -24.0920   86.9990 O.2   259  THR259     -0.2714
    210  CB        51.2860  -23.5350   89.9930 C.3   259  THR259      0.1808
    211  OG1       50.9250  -22.1660   90.2210 O.3   259  THR259     -0.2208
    212  CG2       51.7370  -24.1710   91.2980 C.3   259  THR259      0.0379
    213  N         52.1940  -22.1410   86.9900 N.am  260  SER260     -0.1949
    214  CA        51.6960  -21.7720   85.6700 C.3   260  SER260      0.1924
    215  C         52.2770  -22.6720   84.5930 C.2   260  SER260      0.2314
    216  O         51.7490  -22.7490   83.4850 O.2   260  SER260     -0.2863
    217  CB        52.0330  -20.3210   85.3490 C.3   260  SER260      0.2116
    218  OG        51.1290  -19.4460   85.9980 O.3   260  SER260     -0.2180
@<TRIPOS>BOND
     1    12    11    2
     2    28    27    2
     3    11    10    1
     4    57    56   ar
     5    29    30    1
     6    29    26    1
     7    27    26    1
     8    32    30   am
     9    15    14   ar
    10    10     9    1
    11    10    13    1
    12    30    31    2
    13    26    25    1
    14    56    55    1
    15    56    58   ar
    16    55    52    1
    17     9     3   am
    18     4     3    2
    19    14    13    1
    20    14    16   ar
    21    25    19   am
    22    54    53    2
    23     1     2    1
    24     3     2    1
    25    35    36    2
    26    35    34    1
    27    33    34    1
    28     5     2    1
    29     5     6    1
    30    17    18    1
    31    52    53    1
    32    52    51    1
    33    34    37    1
    34    51    45   am
    35    19    18    1
    36    19    20    2
    37    43    44    1
    38     6     8   ar
    39     6     7   ar
    40    24    22   ar
    41    18    21    1
    42    37    38    1
    43    21    22    1
    44    69    68    2
    45   191   193   ar
    46   191   190   ar
    47    45    44    1
    48    45    46    2
    49    22    23   ar
    50    44    47    1
    51   189   190    1
    52   189   186    1
    53   193   194   ar
    54   190   192   ar
    55    68    67    1
    56    47    48    1
    57   185   186    1
    58    66    67    1
    59   194   192   ar
    60    38    39   ar
    61    38    40   ar
    62    48    49    1
    63    48    50    1
    64    39    41   ar
    65   186   187    1
    66    67    70    1
    67    89    87   ar
    68    89    90   ar
    69   216   215    2
    70    40    42   ar
    71    41    42   ar
    72    80    79    1
    73    87    86   ar
    74    75    76    1
    75   187   188    2
    76   187   195   am
    77    92    90   ar
    78    92    94   ar
    79    90    88   ar
    80    79    76    1
    81    70    71    1
    82   215   214    1
    83    65    63    1
    84    60    59    1
    85    60    63    1
    86    60    61    1
    87    64    63    1
    88    76    77    1
    89    71    72    1
    90   195   196    1
    91    86    88   ar
    92    86    85    1
    93   217   214    1
    94   217   218    1
    95    94    93   ar
    96    61    62    2
    97    78    77    2
    98    88    91   ar
    99   214   213    1
   100    77    81   am
   101    85    82    1
   102   198   197    2
   103    81    82    1
   104   196   197    1
   105   196   199    1
   106    93    91   ar
   107    72    74   ar
   108    72    73   ar
   109   201   199    1
   110   213   208   am
   111   209   208    2
   112   197   202   am
   113    82    83    1
   114   200   199    1
   115   208   207    1
   116   135   136    1
   117   205   204    2
   118   139   136    1
   119    83    84    2
   120    83    95   am
   121   202   203    1
   122   136   137    1
   123   175   173   ar
   124   175   176   ar
   125   204   203    1
   126   204   206   am
   127   173   171   ar
   128   207   206    1
   129   207   210    1
   130    95    96    1
   131   177   176    1
   132   176   174   ar
   133   137   138    2
   134   137   140   am
   135   171   170    1
   136   171   172   ar
   137   210   211    1
   138   210   212    1
   139   170   167    1
   140    96    97    1
   141   157   155   am
   142   169   168    2
   143   174   172   ar
   144   140   141    1
   145    98    97    2
   146   167   168    1
   147   167   166    1
   148    97    99   am
   149   168   178   am
   150   156   155    2
   151   155   154    1
   152   184   182    1
   153   178   179    1
   154   141   142    1
   155   141   144    1
   156   179   182    1
   157   179   180    1
   158    99   105    1
   159    99   100    1
   160   146   142   am
   161   146   147    1
   162   134   133    2
   163   133   132    1
   164   105   104    1
   165   154   151    1
   166   182   183    1
   167   142   143    2
   168   181   180    2
   169   144   145    1
   170   164   163   ar
   171   165   163   ar
   172   147   148    1
   173   100   101    1
   174   100   103    1
   175   122   120   ar
   176   148   150   am
   177   148   149    2
   178   150   151    1
   179   104   103    1
   180   102   101    2
   181   101   106   am
   182   163   162    1
   183   132   131    1
   184   151   152    1
   185   130   128   ar
   186   106   107    1
   187   120   121   ar
   188   120   119    1
   189   107   110    1
   190   107   108    1
   191   131   125   am
   192   161   160    2
   193   128   129   ar
   194   128   127    1
   195   162   159    1
   196   152   153    2
   197   160   159    1
   198   110   111    1
   199   115   108   am
   200   115   116    1
   201   119   116    1
   202   126   125    2
   203   125   124    1
   204   108   109    2
   205   111   112    1
   206   159   158    1
   207   127   124    1
   208   112   114   ar
   209   112   113   ar
   210   116   117    1
   211   124   123    1
   212   117   118    2
