@<TRIPOS>MOLECULE
tmp/1p8vA00.pdb
 124 122 0 0 0
SMALL
GASTEIGER

@<TRIPOS>ATOM
      1  N         37.1680   65.5550   59.7320 N.3   165  ALA165     -0.1231
      2  CA        37.1760   66.2460   58.4540 C.3   165  ALA165      0.1694
      3  C         35.7930   66.6320   57.9340 C.2   165  ALA165      0.2592
      4  O         35.6340   67.6960   57.3340 O.2   165  ALA165     -0.2718
      5  CB        37.8960   65.3990   57.4230 C.3   165  ALA165      0.0304
      6  N         34.7970   65.7770   58.1590 N.am  166  GLY166     -0.1957
      7  CA        33.4580   66.0690   57.6680 C.3   166  GLY166      0.1869
      8  C         32.4810   66.5920   58.7030 C.2   166  GLY166      0.2309
      9  O         31.2730   66.5590   58.4920 O.2   166  GLY166     -0.2863
     10  N         31.3160   69.4250   59.4860 N.3   168  LEU168     -0.1231
     11  CA        30.3390   70.3950   58.9900 C.3   168  LEU168      0.1693
     12  C         29.4860   70.0510   57.7600 C.2   168  LEU168      0.2592
     13  O         28.6630   70.8630   57.3490 O.2   168  LEU168     -0.2718
     14  CB        31.0470   71.7280   58.7400 C.3   168  LEU168      0.0284
     15  CG        32.0300   72.2320   59.8050 C.3   168  LEU168      0.0019
     16  CD1       32.5870   73.5800   59.3720 C.3   168  LEU168      0.0001
     17  CD2       31.3360   72.3540   61.1670 C.3   168  LEU168      0.0001
     18  N         29.6680   68.8700   57.1730 N.am  169  ASN169     -0.1960
     19  CA        28.8830   68.4680   55.9970 C.3   169  ASN169      0.1819
     20  C         27.3700   68.6170   56.1290 C.2   169  ASN169      0.2621
     21  O         26.7800   68.2150   57.1370 O.2   169  ASN169     -0.2715
     22  CB        29.1680   67.0150   55.6260 C.3   169  ASN169      0.1195
     23  CG        30.5160   66.8340   54.9960 C.2   169  ASN169      0.2630
     24  OD1       30.8560   67.5230   54.0350 O.2   169  ASN169     -0.2716
     25  ND2       31.2970   65.8950   55.5220 N.am  169  ASN169     -0.0877
     26  N         26.7530   69.1830   55.0910 N.am  170  GLY170     -0.1954
     27  CA        25.3110   69.3620   55.0710 C.3   170  GLY170      0.1869
     28  C         24.7660   70.5970   55.7610 C.2   170  GLY170      0.2309
     29  O         23.5880   70.9080   55.6140 O.2   170  GLY170     -0.2863
     30  N         24.3060   73.8030   55.3900 N.3   172  GLU172     -0.1245
     31  CA        24.1880   74.9130   54.4440 C.3   172  GLU172      0.1567
     32  C         23.7470   76.2140   55.0970 C.2   172  GLU172      0.2260
     33  O         23.7840   77.2650   54.4660 O.2   172  GLU172     -0.2867
     34  CB        23.1690   74.5730   53.3550 C.3   172  GLU172      0.0388
     35  CG        23.3160   73.2020   52.7320 C.3   172  GLU172      0.1160
     36  CD        24.5930   73.0580   51.9460 C.2   172  GLU172      0.3649
     37  OE1       25.6770   73.0690   52.5690 O.co2 172  GLU172     -0.2457
     38  OE2       24.5120   72.9400   50.7020 O.co2 172  GLU172     -0.2457
     39  N         42.1950   69.2290   56.0360 N.3   189  LYS189     -0.1231
     40  CA        41.9770   69.7720   54.7010 C.3   189  LYS189      0.1693
     41  C         40.5140   69.7270   54.2650 C.2   189  LYS189      0.2593
     42  O         39.8550   68.6980   54.3860 O.2   189  LYS189     -0.2718
     43  CB        42.8440   69.0220   53.6840 C.3   189  LYS189      0.0285
     44  CG        44.3340   69.2680   53.8650 C.3   189  LYS189      0.0035
     45  CD        45.1820   68.6180   52.7700 C.3   189  LYS189      0.0206
     46  CE        46.6740   68.8620   53.0330 C.3   189  LYS189      0.1093
     47  NZ        47.5630   68.3100   51.9680 N.3   189  LYS189     -0.1314
     48  N         40.0170   70.8570   53.7650 N.am  190  GLY190     -0.1942
     49  CA        38.6430   70.9440   53.2980 C.3   190  GLY190      0.2014
     50  C         37.5870   71.0730   54.3800 C.2   190  GLY190      0.2639
     51  O         36.3910   71.0360   54.0910 O.2   190  GLY190     -0.2714
     52  N         38.0230   71.2460   55.6240 N.am  191  PHE191     -0.1959
     53  CA        37.1110   71.3500   56.7640 C.3   191  PHE191      0.1771
     54  C         35.9290   72.3040   56.5690 C.2   191  PHE191      0.2620
     55  O         34.8080   71.9800   56.9440 O.2   191  PHE191     -0.2715
     56  CB        37.8980   71.7620   58.0090 C.3   191  PHE191      0.0574
     57  CG        37.0670   71.8530   59.2590 C.ar  191  PHE191     -0.0200
     58  CD1       36.5140   70.7120   59.8280 C.ar  191  PHE191     -0.0042
     59  CD2       36.8630   73.0810   59.8880 C.ar  191  PHE191     -0.0042
     60  CE1       35.7710   70.7850   61.0110 C.ar  191  PHE191     -0.0003
     61  CE2       36.1180   73.1640   61.0720 C.ar  191  PHE191     -0.0003
     62  CZ        35.5730   72.0100   61.6330 C.ar  191  PHE191     -0.0000
     63  N         36.1830   73.4730   55.9850 N.am  192  PHE192     -0.1960
     64  CA        35.1440   74.4720   55.7750 C.3   192  PHE192      0.1771
     65  C         34.3980   74.3300   54.4560 C.2   192  PHE192      0.2620
     66  O         33.3470   74.9450   54.2670 O.2   192  PHE192     -0.2715
     67  CB        35.7420   75.8810   55.8500 C.3   192  PHE192      0.0574
     68  CG        36.2990   76.2430   57.2030 C.ar  192  PHE192     -0.0200
     69  CD1       37.6650   76.1630   57.4540 C.ar  192  PHE192     -0.0042
     70  CD2       35.4510   76.6330   58.2370 C.ar  192  PHE192     -0.0042
     71  CE1       38.1790   76.4630   58.7160 C.ar  192  PHE192     -0.0003
     72  CE2       35.9550   76.9330   59.5030 C.ar  192  PHE192     -0.0003
     73  CZ        37.3230   76.8470   59.7410 C.ar  192  PHE192     -0.0000
     74  N         34.9370   73.5280   53.5410 N.am  193  GLY193     -0.1940
     75  CA        34.2920   73.3510   52.2500 C.3   193  GLY193      0.2014
     76  C         34.0930   74.6560   51.4970 C.2   193  GLY193      0.2640
     77  O         34.9190   75.5610   51.5870 O.2   193  GLY193     -0.2714
     78  N         32.9980   74.7550   50.7510 N.am  194  SER194     -0.1935
     79  CA        32.6950   75.9670   49.9900 C.3   194  SER194      0.2055
     80  C         31.4920   76.6700   50.6060 C.2   194  SER194      0.2643
     81  O         30.6380   77.2130   49.9070 O.2   194  SER194     -0.2714
     82  CB        32.3850   75.6120   48.5380 C.3   194  SER194      0.2130
     83  OG        33.5210   75.0420   47.9090 O.3   194  SER194     -0.2179
     84  N         31.4320   76.6480   51.9270 N.am  195  HIS195     -0.1973
     85  CA        30.3370   77.2600   52.6430 C.3   195  HIS195      0.1656
     86  C         30.7470   78.6150   53.2070 C.2   195  HIS195      0.2291
     87  O         31.8560   78.7640   53.7130 O.2   195  HIS195     -0.2864
     88  CB        29.9010   76.3420   53.7830 C.3   195  HIS195      0.0771
     89  CG        28.8270   76.9270   54.6420 C.ar  195  HIS195      0.0820
     90  ND1       27.5330   77.1010   54.1980 N.ar  195  HIS195     -0.2267
     91  CD2       28.8650   77.4290   55.8990 C.ar  195  HIS195      0.1154
     92  CE1       26.8220   77.6870   55.1440 C.ar  195  HIS195      0.1986
     93  NE2       27.6070   77.8970   56.1860 N.ar  195  HIS195     -0.2212
     94  N         38.7580   69.8840   46.9880 N.3   272  ASP272     -0.1225
     95  CA        38.0700   69.7140   48.2630 C.3   272  ASP272      0.1805
     96  C         37.1580   68.4980   48.1210 C.2   272  ASP272      0.2598
     97  O         36.1180   68.5630   47.4670 O.2   272  ASP272     -0.2718
     98  CB        37.2490   70.9620   48.5990 C.3   272  ASP272      0.1424
     99  CG        38.0790   72.1760   48.9860 C.2   272  ASP272      0.3668
    100  OD1       39.3070   72.0330   49.1950 O.co2 272  ASP272     -0.2456
    101  OD2       37.5200   73.2670   49.0700 O.co2 272  ASP272     -0.2456
    102  N         37.5640   67.3830   48.7190 N.am  273  THR273     -0.1939
    103  CA        36.7850   66.1520   48.6490 C.3   273  THR273      0.2028
    104  C         35.3170   66.3550   49.0400 C.2   273  THR273      0.2642
    105  O         35.0140   66.7370   50.1690 O.2   273  THR273     -0.2714
    106  CB        37.4080   65.0670   49.5480 C.3   273  THR273      0.1808
    107  OG1       36.4180   64.0800   49.8670 O.3   273  THR273     -0.2208
    108  CG2       37.9700   65.6880   50.8210 C.3   273  THR273      0.0379
    109  N         34.4090   66.0990   48.1000 N.am  274  ASP274     -0.1957
    110  CA        32.9810   66.2650   48.3530 C.3   274  ASP274      0.1840
    111  C         32.3740   65.0360   49.0200 C.2   274  ASP274      0.2621
    112  O         33.0690   64.0680   49.3270 O.2   274  ASP274     -0.2715
    113  CB        32.2240   66.5520   47.0510 C.3   274  ASP274      0.1450
    114  CG        33.1470   66.7900   45.8710 C.2   274  ASP274      0.3671
    115  OD1       33.8630   65.8440   45.4660 O.co2 274  ASP274     -0.2456
    116  OD2       33.1530   67.9230   45.3440 O.co2 274  ASP274     -0.2456
    117  N         31.0630   65.0860   49.2330 N.am  275  LEU275     -0.1977
    118  CA        30.3360   63.9940   49.8690 C.3   275  LEU275      0.1596
    119  C         30.0230   62.8930   48.8670 C.2   275  LEU275      0.2287
    120  O         30.2200   61.7080   49.1420 O.2   275  LEU275     -0.2864
    121  CB        29.0270   64.5160   50.4690 C.3   275  LEU275      0.0297
    122  CG        28.2710   63.5300   51.3580 C.3   275  LEU275      0.0022
    123  CD1       29.1500   63.1670   52.5490 C.3   275  LEU275      0.0001
    124  CD2       26.9550   64.1390   51.8220 C.3   275  LEU275      0.0001
@<TRIPOS>BOND
     1   116   114   ar
     2   115   114   ar
     3   114   113    1
     4    94    95    1
     5   113   110    1
     6    97    96    2
     7    83    82    1
     8   109   110    1
     9   109   104   am
    10    96    95    1
    11    96   102   am
    12    95    98    1
    13   110   111    1
    14    82    79    1
    15    98    99    1
    16   103   102    1
    17   103   104    1
    18   103   106    1
    19   119   120    2
    20   119   118    1
    21    99   101   ar
    22    99   100   ar
    23   111   117   am
    24   111   112    2
    25   104   105    2
    26   117   118    1
    27   106   107    1
    28   106   108    1
    29   118   121    1
    30    81    80    2
    31    79    80    1
    32    79    78    1
    33   121   122    1
    34    80    84   am
    35    38    36   ar
    36    78    76   am
    37   122   124    1
    38   122   123    1
    39    76    77    2
    40    76    75    1
    41    84    85    1
    42    36    37   ar
    43    36    35    1
    44    47    46    1
    45    75    74    1
    46    85    86    1
    47    85    88    1
    48    35    34    1
    49    45    46    1
    50    45    44    1
    51    86    87    2
    52    49    48    1
    53    49    50    1
    54    34    31    1
    55    74    65   am
    56    43    44    1
    57    43    40    1
    58    48    41   am
    59    88    89    1
    60    24    23    2
    61    51    50    2
    62    90    89   ar
    63    90    92   ar
    64    41    42    2
    65    41    40    1
    66    66    65    2
    67    50    52   am
    68    31    32    1
    69    31    30    1
    70    65    64    1
    71    33    32    2
    72    89    91   ar
    73    40    39    1
    74    23    25   am
    75    23    22    1
    76    27    26    1
    77    27    28    1
    78    26    20   am
    79    92    93   ar
    80    29    28    2
    81    52    53    1
    82    22    19    1
    83    64    67    1
    84    64    63    1
    85    67    68    1
    86    91    93   ar
    87    63    54   am
    88    19    20    1
    89    19    18    1
    90    20    21    2
    91    54    53    1
    92    54    55    2
    93    53    56    1
    94    18    12   am
    95    68    69   ar
    96    68    70   ar
    97     4     3    2
    98    13    12    2
    99     5     2    1
   100    69    71   ar
   101     7     6    1
   102     7     8    1
   103    12    11    1
   104     3     6   am
   105     3     2    1
   106    56    57    1
   107    70    72   ar
   108     2     1    1
   109     9     8    2
   110    71    73   ar
   111    14    11    1
   112    14    15    1
   113    11    10    1
   114    57    58   ar
   115    57    59   ar
   116    16    15    1
   117    72    73   ar
   118    15    17    1
   119    58    60   ar
   120    59    61   ar
   121    60    62   ar
   122    61    62   ar
