@<TRIPOS>MOLECULE
tmp/1p8vC00.pdb
 120 119 0 0 0
SMALL
GASTEIGER

@<TRIPOS>ATOM
      1  N         28.2080   34.0180   36.7120 N.3    27  LEU27      -0.1231
      2  CA        29.1150   35.0720   36.2960 C.3    27  LEU27       0.1693
      3  C         29.5640   35.9100   37.4750 C.2    27  LEU27       0.2592
      4  O         30.7600   36.0740   37.7170 O.2    27  LEU27      -0.2718
      5  CB        28.4520   35.9660   35.2510 C.3    27  LEU27       0.0284
      6  CG        28.1720   35.2390   33.9350 C.3    27  LEU27       0.0019
      7  CD1       27.6960   36.2270   32.8930 C.3    27  LEU27       0.0001
      8  CD2       29.4390   34.5430   33.4550 C.3    27  LEU27       0.0001
      9  N         28.5930   36.4230   38.2210 N.am   28  CYS28      -0.1970
     10  CA        28.8710   37.2780   39.3630 C.3    28  CYS28       0.1712
     11  C         27.7330   37.2570   40.3620 C.2    28  CYS28       0.2296
     12  O         26.7160   36.5890   40.1640 O.2    28  CYS28      -0.2864
     13  CB        29.0330   38.7210   38.8940 C.3    28  CYS28       0.0983
     14  SG        30.6470   39.1490   38.2040 S.3    28  CYS28      -0.0798
     15  N         32.5050   45.7530   36.0110 N.3    43  HIS43      -0.1226
     16  CA        33.4290   44.8340   35.3560 C.3    43  HIS43       0.1752
     17  C         32.8530   43.4290   35.1800 C.2    43  HIS43       0.2596
     18  O         33.4700   42.5750   34.5410 O.2    43  HIS43      -0.2718
     19  CB        34.7650   44.7650   36.1140 C.3    43  HIS43       0.0759
     20  CG        34.7320   43.9120   37.3450 C.ar   43  HIS43       0.0818
     21  ND1       34.3240   44.3860   38.5710 N.ar   43  HIS43      -0.2268
     22  CD2       35.0490   42.6080   37.5320 C.ar   43  HIS43       0.1154
     23  CE1       34.3900   43.4120   39.4610 C.ar   43  HIS43       0.1986
     24  NE2       34.8270   42.3220   38.8570 N.ar   43  HIS43      -0.2212
     25  N         31.6750   43.1950   35.7480 N.am   44  CYS44      -0.1970
     26  CA        31.0130   41.9010   35.6350 C.3    44  CYS44       0.1712
     27  C         30.2920   41.8090   34.2960 C.2    44  CYS44       0.2296
     28  O         30.0030   40.7170   33.8050 O.2    44  CYS44      -0.2864
     29  CB        29.9990   41.7220   36.7640 C.3    44  CYS44       0.0983
     30  SG        30.7100   41.1760   38.3450 S.3    44  CYS44      -0.0798
     31  N         39.5130   41.8590   28.5580 N.3    50  TRP50      -0.1241
     32  CA        39.2320   40.4440   28.3810 C.3    50  TRP50       0.1605
     33  C         38.1770   40.2250   27.3130 C.2    50  TRP50       0.2264
     34  O         37.6150   39.1380   27.1900 O.2    50  TRP50      -0.2867
     35  CB        38.7490   39.8620   29.7040 C.3    50  TRP50       0.0550
     36  CG        39.7950   39.8330   30.7600 C.ar   50  TRP50       0.0003
     37  CD1       41.0600   40.3460   30.6770 C.ar   50  TRP50       0.0946
     38  CD2       39.6730   39.2670   32.0690 C.ar   50  TRP50       0.0152
     39  NE1       41.7320   40.1360   31.8540 N.ar   50  TRP50      -0.2442
     40  CE2       40.9070   39.4780   32.7280 C.ar   50  TRP50       0.0810
     41  CE3       38.6420   38.6050   32.7510 C.ar   50  TRP50       0.0012
     42  CZ2       41.1410   39.0460   34.0440 C.ar   50  TRP50       0.0191
     43  CZ3       38.8750   38.1730   34.0660 C.ar   50  TRP50       0.0001
     44  CH2       40.1170   38.3990   34.6950 C.ar   50  TRP50       0.0015
     45  N         35.2320   41.3200   27.2950 N.3    52  LYS52      -0.1245
     46  CA        33.9960   41.0210   28.0130 C.3    52  LYS52       0.1561
     47  C         32.9660   42.1390   27.8450 C.2    52  LYS52       0.2260
     48  O         33.2280   43.3040   28.1670 O.2    52  LYS52      -0.2867
     49  CB        34.2790   40.7420   29.4880 C.3    52  LYS52       0.0271
     50  CG        32.9900   40.5870   30.2720 C.3    52  LYS52       0.0035
     51  CD        33.2170   40.5320   31.7840 C.3    52  LYS52       0.0206
     52  CE        34.0650   39.3390   32.1620 C.3    52  LYS52       0.1093
     53  NZ        34.4900   39.3980   33.5790 N.3    52  LYS52      -0.1314
     54  N         36.7660   38.0880   49.8020 N.3   192  ALA192     -0.1231
     55  CA        35.9270   37.6710   48.6950 C.3   192  ALA192      0.1694
     56  C         36.9070   37.0540   47.7080 C.2   192  ALA192      0.2592
     57  O         38.1210   37.2320   47.8470 O.2   192  ALA192     -0.2718
     58  CB        35.2240   38.8670   48.0750 C.3   192  ALA192      0.0304
     59  N         36.3920   36.3240   46.7230 N.am  193  CYS193     -0.1956
     60  CA        37.2460   35.6860   45.7330 C.3   193  CYS193      0.1843
     61  C         36.4620   35.4750   44.4460 C.2   193  CYS193      0.2625
     62  O         35.2540   35.7100   44.4080 O.2   193  CYS193     -0.2714
     63  CB        37.7630   34.3470   46.2770 C.3   193  CYS193      0.0997
     64  SG        39.2950   33.7260   45.5050 S.3   193  CYS193     -0.0797
     65  N         37.1670   35.0560   43.3960 N.am  194  GLU194     -0.1963
     66  CA        36.5820   34.8000   42.0800 C.3   194  GLU194      0.1733
     67  C         35.1390   34.3110   42.1800 C.2   194  GLU194      0.2616
     68  O         34.8680   33.2120   42.6840 O.2   194  GLU194     -0.2715
     69  CB        37.4170   33.7570   41.3320 C.3   194  GLU194      0.0429
     70  CG        36.9330   33.4610   39.9150 C.3   194  GLU194      0.1163
     71  CD        37.4720   34.4410   38.8950 C.2   194  GLU194      0.3649
     72  OE1       37.8290   35.5740   39.2920 O.co2 194  GLU194     -0.2457
     73  OE2       37.5280   34.0820   37.6980 O.co2 194  GLU194     -0.2457
     74  N         34.2190   35.1470   41.7040 N.am  195  GLY195     -0.1955
     75  CA        32.8120   34.7990   41.7360 C.3   195  GLY195      0.1869
     76  C         31.9330   35.5960   42.6910 C.2   195  GLY195      0.2309
     77  O         30.7010   35.5740   42.5460 O.2   195  GLY195     -0.2863
     78  N         32.4640   38.8980   43.1260 N.3   197  SER197     -0.1217
     79  CA        32.4220   40.2350   42.5540 C.3   197  SER197      0.1889
     80  C         31.0290   40.6170   42.1590 C.2   197  SER197      0.2288
     81  O         30.3220   39.8440   41.5170 O.2   197  SER197     -0.2866
     82  CB        33.3070   40.3100   41.3260 C.3   197  SER197      0.2089
     83  OG        33.6280   38.9870   40.9580 O.3   197  SER197     -0.2183
     84  N         31.3750   44.2230   45.9570 N.3   217  VAL217     -0.1231
     85  CA        32.6490   43.5240   45.8080 C.3   217  VAL217      0.1692
     86  C         33.2050   43.9220   44.4420 C.2   217  VAL217      0.2593
     87  O         32.6070   43.6160   43.4090 O.2   217  VAL217     -0.2718
     88  CB        32.4430   42.0030   45.8700 C.3   217  VAL217      0.0266
     89  CG1       33.7860   41.2930   45.8180 C.3   217  VAL217      0.0020
     90  CG2       31.6770   41.6390   47.1410 C.3   217  VAL217      0.0020
     91  N         34.3410   44.6190   44.4450 N.am  218  SER218     -0.1938
     92  CA        34.9510   45.0940   43.2030 C.3   218  SER218      0.2055
     93  C         36.2060   44.3600   42.7530 C.2   218  SER218      0.2643
     94  O         36.1990   43.7120   41.7130 O.2   218  SER218     -0.2714
     95  CB        35.2640   46.5870   43.3090 C.3   218  SER218      0.2130
     96  OG        35.7040   47.0840   42.0600 O.3   218  SER218     -0.2179
     97  N         37.2860   44.4690   43.5200 N.am  219  TRP219     -0.1959
     98  CA        38.5270   43.8020   43.1420 C.3   219  TRP219      0.1771
     99  C         39.4840   43.5270   44.2880 C.2   219  TRP219      0.2620
    100  O         39.1890   43.8140   45.4460 O.2   219  TRP219     -0.2715
    101  CB        39.2630   44.6170   42.0780 C.3   219  TRP219      0.0590
    102  CG        39.6270   46.0030   42.5140 C.ar  219  TRP219      0.0006
    103  CD1       38.8570   47.1280   42.4080 C.ar  219  TRP219      0.0946
    104  CD2       40.8480   46.4100   43.1430 C.ar  219  TRP219      0.0152
    105  NE1       39.5240   48.2090   42.9310 N.ar  219  TRP219     -0.2442
    106  CE2       40.7480   47.7970   43.3900 C.ar  219  TRP219      0.0810
    107  CE3       42.0160   45.7370   43.5240 C.ar  219  TRP219      0.0012
    108  CZ2       41.7760   48.5260   44.0020 C.ar  219  TRP219      0.0191
    109  CZ3       43.0390   46.4640   44.1340 C.ar  219  TRP219      0.0001
    110  CH2       42.9090   47.8430   44.3660 C.ar  219  TRP219      0.0015
    111  N         40.6390   42.9660   43.9430 N.am  220  GLY220     -0.1954
    112  CA        41.6500   42.6520   44.9350 C.3   220  GLY220      0.1869
    113  C         42.7470   41.7710   44.3660 C.2   220  GLY220      0.2309
    114  O         42.4790   40.8940   43.5510 O.2   220  GLY220     -0.2863
    115  N         43.4850   36.3500   46.7450 N.3   223  CYS223     -0.1235
    116  CA        42.3830   36.1730   47.6840 C.3   223  CYS223      0.1677
    117  C         42.8970   35.8210   49.0740 C.2   223  CYS223      0.2270
    118  O         43.4960   34.7620   49.2700 O.2   223  CYS223     -0.2867
    119  CB        41.4310   35.0580   47.2150 C.3   223  CYS223      0.0956
    120  SG        40.5830   35.3020   45.6120 S.3   223  CYS223     -0.0801
@<TRIPOS>BOND
     1    34    33    2
     2    45    46    1
     3    33    32    1
     4    47    46    1
     5    47    48    2
     6    46    49    1
     7    32    31    1
     8    32    35    1
     9    49    50    1
    10    35    36    1
    11    50    51    1
    12    37    36   ar
    13    37    39   ar
    14    36    38   ar
    15    51    52    1
    16    39    40   ar
    17    38    40   ar
    18    38    41   ar
    19    52    53    1
    20    40    42   ar
    21    41    43   ar
    22     7     6    1
    23     8     6    1
    24    28    27    2
    25     6     5    1
    26    42    44   ar
    27    43    44   ar
    28    27    26    1
    29    18    17    2
    30    17    16    1
    31    17    25   am
    32     5     2    1
    33    16    15    1
    34    16    19    1
    35    26    25    1
    36    26    29    1
    37    19    20    1
    38     2     1    1
    39     2     3    1
    40    29    30    1
    41    20    22   ar
    42    20    21   ar
    43     3     4    2
    44     3     9   am
    45    22    24   ar
    46    73    71   ar
    47    14    30    1
    48    14    13    1
    49     9    10    1
    50    21    23   ar
    51    24    23   ar
    52    13    10    1
    53    71    72   ar
    54    71    70    1
    55    10    11    1
    56    70    69    1
    57    12    11    2
    58    83    82    1
    59    82    79    1
    60    69    66    1
    61    81    80    2
    62    74    75    1
    63    74    67   am
    64    94    93    2
    65    75    76    1
    66    96    95    1
    67   101   102    1
    68   101    98    1
    69    66    67    1
    70    66    65    1
    71    80    79    1
    72    67    68    2
    73   103   102   ar
    74   103   105   ar
    75   102   104   ar
    76    77    76    2
    77    79    78    1
    78    93    92    1
    79    93    97   am
    80   105   106   ar
    81    98    97    1
    82    98    99    1
    83   104   106   ar
    84   104   107   ar
    85    92    95    1
    86    92    91    1
    87   106   108   ar
    88    65    61   am
    89    87    86    2
    90   107   109   ar
    91   114   113    2
    92   111    99   am
    93   111   112    1
    94   108   110   ar
    95   109   110   ar
    96    99   100    2
    97   113   112    1
    98    62    61    2
    99    86    91   am
   100    86    85    1
   101    61    60    1
   102    64   120    1
   103    64    63    1
   104   120   119    1
   105    60    63    1
   106    60    59    1
   107    85    88    1
   108    85    84    1
   109    89    88    1
   110    88    90    1
   111    59    56   am
   112   115   116    1
   113   119   116    1
   114   116   117    1
   115    56    57    2
   116    56    55    1
   117    58    55    1
   118    55    54    1
   119   117   118    2
