@<TRIPOS>MOLECULE
tmp/1p91A00.pdb
 206 203 0 0 0
SMALL
GASTEIGER

@<TRIPOS>ATOM
      1  N         18.6970   21.7810   48.1630 N.3    54  ARG54      -0.1245
      2  CA        18.5220   23.1590   47.7070 C.3    54  ARG54       0.1563
      3  C         17.7190   23.8290   48.8130 C.2    54  ARG54       0.2260
      4  O         18.0750   24.8930   49.3160 O.2    54  ARG54      -0.2867
      5  CB        17.7320   23.2330   46.3860 C.3    54  ARG54       0.0307
      6  CG        18.5550   23.0510   45.1150 C.3    54  ARG54       0.0489
      7  CD        18.2420   21.7290   44.3980 C.3    54  ARG54       0.2205
      8  NE        19.4520   20.9840   44.0290 N.pl3  54  ARG54      -0.0865
      9  CZ        19.4640   19.7420   43.5400 C.cat  54  ARG54       0.5346
     10  NH1       18.3120   19.0870   43.3520 N.pl3  54  ARG54       0.1354
     11  NH2       20.6300   19.1490   43.2560 N.pl3  54  ARG54       0.1354
     12  N         18.9540   26.7960   51.2100 N.3    58  LEU58      -0.1245
     13  CA        18.3390   28.0990   51.1340 C.3    58  LEU58       0.1561
     14  C         17.7340   28.5060   52.4560 C.2    58  LEU58       0.2260
     15  O         17.6630   29.6890   52.7490 O.2    58  LEU58      -0.2867
     16  CB        17.2700   28.0990   50.0560 C.3    58  LEU58       0.0270
     17  CG        17.7950   27.8960   48.6410 C.3    58  LEU58       0.0019
     18  CD1       16.6500   27.5970   47.7300 C.3    58  LEU58       0.0001
     19  CD2       18.5310   29.1410   48.1940 C.3    58  LEU58       0.0001
     20  N         21.0590   32.8370   50.4630 N.3    63  TYR63      -0.1241
     21  CA        20.6350   33.5770   49.2960 C.3    63  TYR63       0.1605
     22  C         19.5720   34.6360   49.5120 C.2    63  TYR63       0.2264
     23  O         19.1960   35.3600   48.5780 O.2    63  TYR63      -0.2867
     24  CB        20.1930   32.5950   48.2420 C.3    63  TYR63       0.0534
     25  CG        21.3430   32.0870   47.4060 C.ar   63  TYR63      -0.0201
     26  CD1       22.6640   32.1320   47.8720 C.ar   63  TYR63      -0.0009
     27  CD2       21.1080   31.5060   46.1590 C.ar   63  TYR63      -0.0009
     28  CE1       23.7140   31.5930   47.1090 C.ar   63  TYR63       0.0417
     29  CE2       22.1500   30.9720   45.3970 C.ar   63  TYR63       0.0417
     30  CZ        23.4360   31.0120   45.8730 C.ar   63  TYR63       0.1957
     31  OH        24.4080   30.4230   45.1050 O.3    63  TYR63      -0.2866
     32  N         19.3350   37.9740   47.7500 N.3    66  LEU66      -0.1245
     33  CA        18.7180   37.9950   46.4300 C.3    66  LEU66       0.1561
     34  C         17.2120   38.0820   46.5110 C.2    66  LEU66       0.2260
     35  O         16.5810   38.7790   45.7240 O.2    66  LEU66      -0.2867
     36  CB        19.0720   36.7490   45.6370 C.3    66  LEU66       0.0270
     37  CG        18.2240   36.5660   44.3720 C.3    66  LEU66       0.0019
     38  CD1       18.3110   37.7560   43.4390 C.3    66  LEU66       0.0001
     39  CD2       18.6980   35.3290   43.7020 C.3    66  LEU66       0.0001
     40  N          5.5810   33.3830   39.4160 N.3    87  ASP87      -0.1239
     41  CA         6.9640   33.0500   39.6630 C.3    87  ASP87       0.1674
     42  C          7.3360   31.8230   38.8230 C.2    87  ASP87       0.2266
     43  O          7.1530   30.6980   39.2710 O.2    87  ASP87      -0.2867
     44  CB         7.1020   32.7460   41.1520 C.3    87  ASP87       0.1410
     45  CG         8.5340   32.5100   41.5830 C.2    87  ASP87       0.3668
     46  OD1        8.7150   32.0930   42.7490 O.co2  87  ASP87      -0.2456
     47  OD2        9.4780   32.7450   40.7830 O.co2  87  ASP87      -0.2456
     48  N          9.4190   28.8650   37.5530 N.3    89  GLY89      -0.1210
     49  CA        10.5240   28.1310   38.1630 C.3    89  GLY89       0.1956
     50  C         10.5160   28.2390   39.6800 C.2    89  GLY89       0.2612
     51  O         11.5570   28.3030   40.3220 O.2    89  GLY89      -0.2717
     52  N          9.3320   28.2360   40.2650 N.am   90  CYS90      -0.1956
     53  CA         9.1950   28.4370   41.7090 C.3    90  CYS90       0.1843
     54  C          9.6150   27.2680   42.6000 C.2    90  CYS90       0.2626
     55  O          9.2200   27.2200   43.7650 O.2    90  CYS90      -0.2714
     56  CB         7.7560   28.7940   42.0460 C.3    90  CYS90       0.0997
     57  SG         6.6120   27.3800   41.9730 S.3    90  CYS90      -0.0797
     58  N         10.3770   26.3490   42.0770 N.am   91  GLY91      -0.1940
     59  CA        10.8610   25.2270   42.8700 C.3    91  GLY91       0.2014
     60  C          9.9210   24.9100   44.0540 C.2    91  GLY91       0.2639
     61  O          8.7210   24.8240   43.8770 O.2    91  GLY91      -0.2714
     62  N         10.4960   24.7080   45.2320 N.am   92  GLU92      -0.1963
     63  CA         9.6800   24.4430   46.3970 C.3    92  GLU92       0.1733
     64  C          9.2260   25.7470   46.9970 C.2    92  GLU92       0.2617
     65  O          8.7810   25.7940   48.1420 O.2    92  GLU92      -0.2715
     66  CB        10.4190   23.5710   47.4040 C.3    92  GLU92       0.0429
     67  CG        11.8400   24.0330   47.7080 C.3    92  GLU92       0.1163
     68  CD        11.8610   25.3810   48.3840 C.2    92  GLU92       0.3649
     69  OE1       12.7760   26.1790   48.0740 O.co2  92  GLU92      -0.2457
     70  OE2       10.9850   25.6340   49.2370 O.co2  92  GLU92      -0.2457
     71  N          9.3490   26.8110   46.2490 N.am   93  GLY93      -0.1940
     72  CA         8.8960   28.1230   46.6830 C.3    93  GLY93       0.2014
     73  C          9.6370   28.8170   47.8390 C.2    93  GLY93       0.2639
     74  O          9.0190   29.4220   48.7100 O.2    93  GLY93      -0.2714
     75  N         10.9610   28.7460   47.8570 N.am   94  TYR94      -0.1959
     76  CA        11.7110   29.4170   48.8990 C.3    94  TYR94       0.1771
     77  C         11.5450   30.9210   48.6760 C.2    94  TYR94       0.2620
     78  O         11.2870   31.6850   49.6200 O.2    94  TYR94      -0.2715
     79  CB        13.1990   29.0830   48.8030 C.3    94  TYR94       0.0574
     80  CG        14.0490   30.0540   49.5930 C.ar   94  TYR94      -0.0198
     81  CD1       14.1080   29.9670   50.9810 C.ar   94  TYR94      -0.0009
     82  CD2       14.7230   31.1050   48.9620 C.ar   94  TYR94      -0.0009
     83  CE1       14.8060   30.8890   51.7260 C.ar   94  TYR94       0.0417
     84  CE2       15.4260   32.0430   49.6950 C.ar   94  TYR94       0.0417
     85  CZ        15.4680   31.9280   51.0950 C.ar   94  TYR94       0.1957
     86  OH        16.1930   32.8110   51.8940 O.3    94  TYR94      -0.2866
     87  N         11.7000   31.3290   47.4160 N.am   95  TYR95      -0.1960
     88  CA        11.6060   32.7290   47.0490 C.3    95  TYR95       0.1771
     89  C         10.1920   33.2640   46.9390 C.2    95  TYR95       0.2620
     90  O          9.9190   34.3640   47.4370 O.2    95  TYR95      -0.2715
     91  CB        12.3160   32.9960   45.7200 C.3    95  TYR95       0.0574
     92  CG        13.7780   32.6290   45.6940 C.ar   95  TYR95      -0.0198
     93  CD1       14.1700   31.3340   45.4090 C.ar   95  TYR95      -0.0009
     94  CD2       14.7710   33.5860   45.8960 C.ar   95  TYR95      -0.0009
     95  CE1       15.5160   30.9940   45.3110 C.ar   95  TYR95       0.0417
     96  CE2       16.1310   33.2530   45.8000 C.ar   95  TYR95       0.0417
     97  CZ        16.4980   31.9500   45.4980 C.ar   95  TYR95       0.1957
     98  OH        17.8290   31.5770   45.3330 O.3    95  TYR95      -0.2866
     99  N          9.3100   32.4980   46.2800 N.am   96  THR96      -0.1951
    100  CA         7.9160   32.8870   46.0530 C.3    96  THR96       0.1897
    101  C          7.1290   33.2420   47.2890 C.2    96  THR96       0.2313
    102  O          6.5320   34.3110   47.3480 O.2    96  THR96      -0.2863
    103  CB         7.1300   31.8070   45.3730 C.3    96  THR96       0.1794
    104  OG1        8.0200   30.8270   44.8530 O.3    96  THR96      -0.2208
    105  CG2        6.3470   32.3910   44.2560 C.3    96  THR96       0.0378
    106  N         13.5460   33.4580   38.3840 N.3   150  ILE150     -0.1231
    107  CA        14.8310   33.2890   39.0410 C.3   150  ILE150      0.1692
    108  C         15.6320   32.1210   38.5100 C.2   150  ILE150      0.2592
    109  O         15.5150   30.9850   38.9670 O.2   150  ILE150     -0.2718
    110  CB        14.6520   33.1510   40.5270 C.3   150  ILE150      0.0266
    111  CG1       14.1570   34.4740   41.0970 C.3   150  ILE150      0.0019
    112  CG2       15.9680   32.7900   41.1790 C.3   150  ILE150      0.0020
    113  CD1       14.0450   34.4480   42.6150 C.3   150  ILE150      0.0001
    114  N         16.4660   32.4250   37.5310 N.am  151  TYR151     -0.1976
    115  CA        17.3110   31.4360   36.8820 C.3   151  TYR151      0.1639
    116  C         16.5200   30.4140   36.0690 C.2   151  TYR151      0.2290
    117  O         17.1160   29.5490   35.4730 O.2   151  TYR151     -0.2864
    118  CB        18.1840   30.6870   37.9020 C.3   151  TYR151      0.0560
    119  CG        19.3650   29.9570   37.2690 C.ar  151  TYR151     -0.0198
    120  CD1       20.5920   30.5870   37.1270 C.ar  151  TYR151     -0.0009
    121  CD2       19.2210   28.6750   36.7150 C.ar  151  TYR151     -0.0009
    122  CE1       21.6700   29.9620   36.4440 C.ar  151  TYR151      0.0417
    123  CE2       20.2880   28.0470   36.0180 C.ar  151  TYR151      0.0417
    124  CZ        21.5040   28.7030   35.8820 C.ar  151  TYR151      0.1957
    125  OH        22.5230   28.1160   35.1600 O.3   151  TYR151     -0.2866
    126  N         16.7060   37.0630   37.2990 N.3   172  ALA172     -0.1231
    127  CA        17.9190   37.0200   38.0890 C.3   172  ALA172      0.1694
    128  C         18.6810   35.7610   37.7170 C.2   172  ALA172      0.2593
    129  O         18.1290   34.6770   37.7950 O.2   172  ALA172     -0.2718
    130  CB        17.5670   37.0060   39.5960 C.3   172  ALA172      0.0304
    131  N         19.9290   35.9010   37.2860 N.am  173  THR173     -0.1940
    132  CA        20.7600   34.7430   36.9560 C.3   173  THR173      0.2013
    133  C         22.1220   34.9790   37.5850 C.2   173  THR173      0.2484
    134  O         22.3960   36.0620   38.1040 O.2   173  THR173     -0.2729
    135  CB        20.9870   34.5790   35.4440 C.3   173  THR173      0.1807
    136  OG1       21.5410   35.7920   34.9230 O.3   173  THR173     -0.2208
    137  CG2       19.7000   34.2570   34.7400 C.3   173  THR173      0.0379
    138  N         23.0060   33.9730   37.5360 N.am  174  PRO174     -0.2726
    139  CA        24.3240   34.1780   38.1310 C.3   174  PRO174      0.1402
    140  C         25.1530   35.1560   37.2780 C.2   174  PRO174      0.2269
    141  O         24.9720   35.2650   36.0590 O.2   174  PRO174     -0.2865
    142  CB        24.8990   32.7660   38.1600 C.3   174  PRO174      0.0296
    143  CG        24.3920   32.2080   36.8640 C.3   174  PRO174      0.0237
    144  CD        22.9490   32.6810   36.8290 C.3   174  PRO174      0.0939
    145  N         30.0640   34.5820   40.0750 N.3   178  HIS178     -0.1226
    146  CA        29.2570   33.7750   40.9690 C.3   178  HIS178      0.1752
    147  C         29.8380   32.4440   41.3700 C.2   178  HIS178      0.2595
    148  O         29.8630   31.5120   40.5810 O.2   178  HIS178     -0.2718
    149  CB        27.8690   33.5440   40.3890 C.3   178  HIS178      0.0759
    150  CG        26.9590   32.8580   41.3470 C.ar  178  HIS178      0.0818
    151  ND1       26.7140   33.3540   42.6090 N.ar  178  HIS178     -0.2268
    152  CD2       26.3140   31.6700   41.2730 C.ar  178  HIS178      0.1154
    153  CE1       25.9600   32.4960   43.2720 C.ar  178  HIS178      0.1986
    154  NE2       25.7040   31.4660   42.4860 N.ar  178  HIS178     -0.2212
    155  N         30.2900   32.3570   42.6130 N.am  179  LEU179     -0.1980
    156  CA        30.8630   31.1250   43.1540 C.3   179  LEU179      0.1596
    157  C         32.2310   30.7470   42.5720 C.2   179  LEU179      0.2287
    158  O         32.5130   29.5700   42.3330 O.2   179  LEU179     -0.2864
    159  CB        29.8810   29.9600   42.9630 C.3   179  LEU179      0.0297
    160  CG        28.5290   30.0480   43.6870 C.3   179  LEU179      0.0022
    161  CD1       27.8800   28.6900   43.6760 C.3   179  LEU179      0.0001
    162  CD2       28.7080   30.4870   45.1460 C.3   179  LEU179      0.0001
    163  N         26.7520   22.7850   48.9990 N.3   223  LEU223     -0.1245
    164  CA        26.6430   23.6930   47.8750 C.3   223  LEU223      0.1561
    165  C         27.3940   23.2190   46.6350 C.2   223  LEU223      0.2260
    166  O         26.9380   23.4180   45.4980 O.2   223  LEU223     -0.2867
    167  CB        27.1360   25.0710   48.2930 C.3   223  LEU223      0.0270
    168  CG        27.1360   26.1210   47.2000 C.3   223  LEU223      0.0019
    169  CD1       25.7150   26.3760   46.7840 C.3   223  LEU223      0.0001
    170  CD2       27.8040   27.3920   47.6990 C.3   223  LEU223      0.0001
    171  N         25.9230   21.6630   42.1510 N.3   226  THR226     -0.1204
    172  CA        26.3610   22.5020   41.0490 C.3   226  THR226      0.1979
    173  C         26.8090   21.5990   39.9260 C.2   226  THR226      0.2460
    174  O         27.3640   20.5400   40.1620 O.2   226  THR226     -0.2732
    175  CB        27.5190   23.4060   41.4530 C.3   226  THR226      0.1783
    176  OG1       28.6870   22.6070   41.6660 O.3   226  THR226     -0.2211
    177  CG2       27.1650   24.1810   42.7280 C.3   226  THR226      0.0376
    178  N         26.5980   22.0290   38.6800 N.am  227  PRO227     -0.2717
    179  CA        26.9510   21.2820   37.4660 C.3   227  PRO227      0.1535
    180  C         28.2860   20.5480   37.4830 C.2   227  PRO227      0.2598
    181  O         28.3950   19.4180   36.9950 O.2   227  PRO227     -0.2715
    182  CB        26.9130   22.3520   36.3770 C.3   227  PRO227      0.0310
    183  CG        25.8880   23.3090   36.8920 C.3   227  PRO227      0.0237
    184  CD        26.2440   23.4190   38.3480 C.3   227  PRO227      0.0939
    185  N         29.2990   21.1860   38.0580 N.am  228  PHE228     -0.1974
    186  CA        30.6340   20.6080   38.0810 C.3   228  PHE228      0.1639
    187  C         30.9810   19.5980   39.1670 C.2   228  PHE228      0.2290
    188  O         31.9990   18.9250   39.0780 O.2   228  PHE228     -0.2864
    189  CB        31.6850   21.7380   38.0510 C.3   228  PHE228      0.0560
    190  CG        31.2600   23.0220   38.7390 C.ar  228  PHE228     -0.0200
    191  CD1       31.4590   23.2030   40.1090 C.ar  228  PHE228     -0.0042
    192  CD2       30.6840   24.0580   37.9970 C.ar  228  PHE228     -0.0042
    193  CE1       31.0970   24.3950   40.7290 C.ar  228  PHE228     -0.0003
    194  CE2       30.3170   25.2520   38.6000 C.ar  228  PHE228     -0.0003
    195  CZ        30.5240   25.4230   39.9720 C.ar  228  PHE228     -0.0000
    196  N         24.9620   37.8210   41.4800 N.3   252  PHE252     -0.1241
    197  CA        23.7120   37.6700   40.7260 C.3   252  PHE252      0.1605
    198  C         23.5210   38.8830   39.8590 C.2   252  PHE252      0.2264
    199  O         23.8950   39.9930   40.2430 O.2   252  PHE252     -0.2867
    200  CB        22.5000   37.5920   41.6380 C.3   252  PHE252      0.0534
    201  CG        22.5670   36.4990   42.6280 C.ar  252  PHE252     -0.0203
    202  CD1       22.8290   36.7900   43.9670 C.ar  252  PHE252     -0.0042
    203  CD2       22.3530   35.1780   42.2460 C.ar  252  PHE252     -0.0042
    204  CE1       22.8720   35.7930   44.9110 C.ar  252  PHE252     -0.0003
    205  CE2       22.3950   34.1490   43.2040 C.ar  252  PHE252     -0.0003
    206  CZ        22.6530   34.4590   44.5330 C.ar  252  PHE252     -0.0000
@<TRIPOS>BOND
     1   137   135    1
     2   136   135    1
     3   125   124    1
     4   135   132    1
     5   117   116    2
     6   124   123   ar
     7   124   122   ar
     8   123   121   ar
     9   141   140    2
    10   116   115    1
    11   182   183    1
    12   182   179    1
    13   122   120   ar
    14   121   119   ar
    15   144   143    1
    16   144   138    1
    17   143   142    1
    18   115   114    1
    19   115   118    1
    20   183   184    1
    21   132   131    1
    22   132   133    1
    23   181   180    2
    24   120   119   ar
    25   119   118    1
    26   140   139    1
    27   131   128   am
    28   126   127    1
    29   179   180    1
    30   179   178    1
    31   180   185   am
    32   114   108   am
    33   138   133   am
    34   138   139    1
    35    48    49    1
    36   133   134    2
    37   128   129    2
    38   128   127    1
    39   192   194   ar
    40   192   190   ar
    41   189   186    1
    42   189   190    1
    43   185   186    1
    44   186   187    1
    45   127   130    1
    46   139   142    1
    47    49    50    1
    48   184   178    1
    49   106   107    1
    50   108   109    2
    51   108   107    1
    52   194   195   ar
    53   178   173   am
    54   190   191   ar
    55    42    43    2
    56    42    41    1
    57   107   110    1
    58   188   187    2
    59    40    41    1
    60    41    44    1
    61    50    52   am
    62    50    51    2
    63   198   199    2
    64   198   197    1
    65   173   174    2
    66   173   172    1
    67   195   193   ar
    68   145   146    1
    69   191   193   ar
    70    52    53    1
    71   149   146    1
    72   149   150    1
    73   110   111    1
    74   110   112    1
    75   148   147    2
    76   197   196    1
    77   197   200    1
    78    47    45   ar
    79   146   147    1
    80   172   175    1
    81   172   171    1
    82   111   113    1
    83    44    45    1
    84   152   150   ar
    85   152   154   ar
    86   150   151   ar
    87   147   155   am
    88   175   176    1
    89   175   177    1
    90    45    46   ar
    91   200   201    1
    92    53    56    1
    93    53    54    1
    94    57    56    1
    95    58    54   am
    96    58    59    1
    97   203   201   ar
    98   203   205   ar
    99   158   157    2
   100   154   153   ar
   101   157   156    1
   102    54    55    2
   103   151   153   ar
   104   155   156    1
   105   201   202   ar
   106    59    60    1
   107   159   156    1
   108   159   160    1
   109   205   206   ar
   110    11     9    1
   111    10     9    1
   112    38    37    1
   113     9     8    2
   114   161   160    1
   115   160   162    1
   116    39    37    1
   117    61    60    2
   118   202   204   ar
   119     8     7    1
   120    60    62   am
   121   105   103    1
   122    37    36    1
   123     7     6    1
   124   206   204   ar
   125   104   103    1
   126    31    30    1
   127     6     5    1
   128    62    63    1
   129    95    93   ar
   130    95    97   ar
   131    98    97    1
   132   103   100    1
   133    29    30   ar
   134    29    27   ar
   135    93    92   ar
   136   166   165    2
   137    97    96   ar
   138    36    33    1
   139    92    91    1
   140    92    94   ar
   141    91    88    1
   142    35    34    2
   143    96    94   ar
   144    30    28   ar
   145   100    99    1
   146   100   101    1
   147    27    25   ar
   148    71    72    1
   149    71    64   am
   150    99    89   am
   151     5     2    1
   152    63    64    1
   153    63    66    1
   154    33    34    1
   155    33    32    1
   156   165   164    1
   157    72    73    1
   158   169   168    1
   159    89    88    1
   160    89    90    2
   161    64    65    2
   162    88    87    1
   163    28    26   ar
   164   168   170    1
   165   168   167    1
   166   101   102    2
   167    66    67    1
   168    25    26   ar
   169    25    24    1
   170    87    77   am
   171     2     1    1
   172     2     3    1
   173    67    68    1
   174    18    17    1
   175    73    75   am
   176    73    74    2
   177    75    76    1
   178   164   167    1
   179   164   163    1
   180    69    68   ar
   181    19    17    1
   182    24    21    1
   183    68    70   ar
   184    23    22    2
   185    17    16    1
   186    77    76    1
   187    77    78    2
   188    79    76    1
   189    79    80    1
   190     3     4    2
   191    82    80   ar
   192    82    84   ar
   193    21    22    1
   194    21    20    1
   195    80    81   ar
   196    84    85   ar
   197    16    13    1
   198    81    83   ar
   199    85    83   ar
   200    85    86    1
   201    13    12    1
   202    13    14    1
   203    14    15    2
