@<TRIPOS>MOLECULE
tmp/1p99A00.pdb
 125 120 0 0 0
SMALL
GASTEIGER

@<TRIPOS>ATOM
      1  N          5.7210    7.4950    4.1010 N.3    36  TYR36      -0.1241
      2  CA         5.6500    6.2160    4.8020 C.3    36  TYR36       0.1605
      3  C          6.8290    5.2770    4.5920 C.2    36  TYR36       0.2264
      4  O          6.9550    4.2720    5.2870 O.2    36  TYR36      -0.2867
      5  CB         4.3750    5.4720    4.4000 C.3    36  TYR36       0.0534
      6  CG         3.0670    6.1880    4.6880 C.ar   36  TYR36      -0.0201
      7  CD1        2.9280    7.0580    5.7800 C.ar   36  TYR36      -0.0009
      8  CD2        1.9290    5.8980    3.9350 C.ar   36  TYR36      -0.0009
      9  CE1        1.6700    7.6100    6.1160 C.ar   36  TYR36       0.0417
     10  CE2        0.6840    6.4350    4.2600 C.ar   36  TYR36       0.0417
     11  CZ         0.5540    7.2810    5.3480 C.ar   36  TYR36       0.1957
     12  OH        -0.7060    7.7450    5.6750 O.3    36  TYR36      -0.2866
     13  N          3.3650    5.7350   13.0690 N.3    53  PHE53      -0.1227
     14  CA         2.8340    6.3110   11.8400 C.3    53  PHE53       0.1736
     15  C          2.1040    5.2950   10.9740 C.2    53  PHE53       0.2595
     16  O          1.4330    5.6740   10.0150 O.2    53  PHE53      -0.2718
     17  CB         3.9830    6.8580   10.9950 C.3    53  PHE53       0.0547
     18  CG         4.7290    5.7840   10.2350 C.ar   53  PHE53      -0.0202
     19  CD1        4.5240    5.6060    8.8650 C.ar   53  PHE53      -0.0042
     20  CD2        5.5980    4.9140   10.8980 C.ar   53  PHE53      -0.0042
     21  CE1        5.1740    4.5720    8.1630 C.ar   53  PHE53      -0.0003
     22  CE2        6.2500    3.8800   10.2070 C.ar   53  PHE53      -0.0003
     23  CZ         6.0370    3.7100    8.8400 C.ar   53  PHE53      -0.0000
     24  N          2.2430    4.0140   11.2990 N.am   54  GLN54      -0.1965
     25  CA         1.6610    2.9600   10.4750 C.3    54  GLN54       0.1733
     26  C          0.6800    2.0380   11.1940 C.2    54  GLN54       0.2616
     27  O          0.5560    2.0760   12.4240 O.2    54  GLN54      -0.2715
     28  CB         2.8000    2.1010    9.9100 C.3    54  GLN54       0.0408
     29  CG         3.3710    1.1230   10.9450 C.3    54  GLN54       0.0908
     30  CD         4.7600    0.6090   10.6040 C.2    54  GLN54       0.2608
     31  OE1        4.9830    0.0410    9.5370 O.2    54  GLN54      -0.2717
     32  NE2        5.7010    0.8010   11.5210 N.am   54  GLN54      -0.0878
     33  N         -0.0080    1.2090   10.4090 N.am   55  HIS55      -0.1973
     34  CA        -0.9330    0.2270   10.9600 C.3    55  HIS55       0.1656
     35  C         -0.3200   -1.1640   10.8120 C.2    55  HIS55       0.2291
     36  O          0.7420   -1.3150   10.1920 O.2    55  HIS55      -0.2864
     37  CB        -2.3220    0.2960   10.2890 C.3    55  HIS55       0.0771
     38  CG        -2.3040    0.3850    8.7900 C.ar   55  HIS55       0.0820
     39  ND1       -1.6970   -0.5560    7.9860 N.ar   55  HIS55      -0.2267
     40  CD2       -2.8930    1.2690    7.9500 C.ar   55  HIS55       0.1154
     41  CE1       -1.9150   -0.2560    6.7170 C.ar   55  HIS55       0.1986
     42  NE2       -2.6400    0.8470    6.6680 N.ar   55  HIS55      -0.2212
     43  N          0.4160   -2.4210    7.1000 N.3    58  PHE58      -0.1241
     44  CA         1.5520   -1.7700    6.4650 C.3    58  PHE58       0.1605
     45  C          2.8640   -2.3690    6.9740 C.2    58  PHE58       0.2264
     46  O          3.7670   -2.6560    6.1820 O.2    58  PHE58      -0.2867
     47  CB         1.5320   -0.2630    6.7470 C.3    58  PHE58       0.0534
     48  CG         2.5860    0.5060    6.0030 C.ar   58  PHE58      -0.0203
     49  CD1        2.3070    1.0750    4.7620 C.ar   58  PHE58      -0.0042
     50  CD2        3.8670    0.6390    6.5270 C.ar   58  PHE58      -0.0042
     51  CE1        3.2920    1.7640    4.0530 C.ar   58  PHE58      -0.0003
     52  CE2        4.8580    1.3240    5.8260 C.ar   58  PHE58      -0.0003
     53  CZ         4.5680    1.8840    4.5880 C.ar   58  PHE58      -0.0000
     54  N         -7.5930    5.2580   12.3090 N.3    80  ALA80      -0.1245
     55  CA        -7.7790    6.4940   11.5450 C.3    80  ALA80       0.1562
     56  C         -8.4610    6.1240   10.2330 C.2    80  ALA80       0.2260
     57  O         -7.8030    5.8670    9.2180 O.2    80  ALA80      -0.2867
     58  CB        -6.4320    7.1520   11.2840 C.3    80  ALA80       0.0290
     59  N        -10.1940    5.5650    6.7270 N.3    82  LEU82      -0.1245
     60  CA        -9.8560    5.9910    5.3770 C.3    82  LEU82       0.1561
     61  C        -11.0970    6.6530    4.8000 C.2    82  LEU82       0.2260
     62  O        -12.2130    6.3370    5.2090 O.2    82  LEU82      -0.2867
     63  CB        -9.4880    4.7760    4.5390 C.3    82  LEU82       0.0270
     64  CG        -8.9220    4.9990    3.1430 C.3    82  LEU82       0.0019
     65  CD1       -7.6010    5.7460    3.2340 C.3    82  LEU82       0.0001
     66  CD2       -8.7350    3.6370    2.4790 C.3    82  LEU82       0.0001
     67  N         -2.3760   -0.2740    1.7150 N.3   109  ASN109     -0.1240
     68  CA        -3.3210    0.8220    1.5740 C.3   109  ASN109      0.1653
     69  C         -4.0420    0.8030    0.2370 C.2   109  ASN109      0.2266
     70  O         -5.1660    1.2980    0.1220 O.2   109  ASN109     -0.2867
     71  CB        -2.6260    2.1580    1.8140 C.3   109  ASN109      0.1155
     72  CG        -2.2340    2.3390    3.2660 C.2   109  ASN109      0.2627
     73  OD1       -1.0520    2.4370    3.5970 O.2   109  ASN109     -0.2716
     74  ND2       -3.2250    2.3610    4.1460 N.am  109  ASN109     -0.0877
     75  N         -6.7890   -1.7060    0.7080 N.3   112  ARG112     -0.1245
     76  CA        -7.7160   -1.0590    1.6250 C.3   112  ARG112      0.1563
     77  C         -8.5690   -0.0360    0.8790 C.2   112  ARG112      0.2260
     78  O         -9.7800    0.0610    1.1040 O.2   112  ARG112     -0.2867
     79  CB        -6.9160   -0.3730    2.7320 C.3   112  ARG112      0.0307
     80  CG        -7.7420    0.2560    3.8330 C.3   112  ARG112      0.0489
     81  CD        -6.8350    1.0140    4.7680 C.3   112  ARG112      0.2205
     82  NE        -7.5790    1.6810    5.8220 N.pl3 112  ARG112     -0.0865
     83  CZ        -7.0350    2.5190    6.6900 C.cat 112  ARG112      0.5346
     84  NH1       -5.7380    2.7900    6.6260 N.pl3 112  ARG112      0.1354
     85  NH2       -7.7910    3.0950    7.6130 N.pl3 112  ARG112      0.1354
     86  N         -5.5290    8.7830    2.8900 N.3   168  ASN168     -0.1225
     87  CA        -5.2590    8.3510    4.2510 C.3   168  ASN168      0.1785
     88  C         -5.5280    9.5350    5.1780 C.2   168  ASN168      0.2597
     89  O         -5.2100   10.6890    4.8520 O.2   168  ASN168     -0.2718
     90  CB        -3.7990    7.9180    4.3830 C.3   168  ASN168      0.1169
     91  CG        -3.5490    6.5530    3.7960 C.2   168  ASN168      0.2627
     92  OD1       -3.7010    5.5370    4.4840 O.2   168  ASN168     -0.2716
     93  ND2       -3.1840    6.5100    2.5180 N.am  168  ASN168     -0.0877
     94  N         -6.1080    9.2250    6.3300 N.am  169  ASN169     -0.1960
     95  CA        -6.4540   10.1890    7.3620 C.3   169  ASN169      0.1819
     96  C         -5.3470   11.2270    7.6420 C.2   169  ASN169      0.2621
     97  O         -5.5940   12.4380    7.6370 O.2   169  ASN169     -0.2715
     98  CB        -6.7950    9.4070    8.6340 C.3   169  ASN169      0.1195
     99  CG        -7.4990   10.2450    9.6710 C.2   169  ASN169      0.2630
    100  OD1       -6.9230   11.1640   10.2340 O.2   169  ASN169     -0.2716
    101  ND2       -8.7650    9.9230    9.9310 N.am  169  ASN169     -0.0877
    102  N         -4.1290   10.7510    7.8810 N.am  170  GLY170     -0.1954
    103  CA        -3.0260   11.6490    8.1700 C.3   170  GLY170      0.1869
    104  C         -2.6300   12.5250    7.0000 C.2   170  GLY170      0.2309
    105  O         -2.1760   13.6540    7.1820 O.2   170  GLY170     -0.2863
    106  N         -5.9100   -2.2870   10.2490 N.3   197  TYR197     -0.1241
    107  CA        -5.5790   -0.8830   10.0650 C.3   197  TYR197      0.1605
    108  C         -5.4270   -0.0580   11.3370 C.2   197  TYR197      0.2264
    109  O         -5.3210    1.1680   11.2780 O.2   197  TYR197     -0.2867
    110  CB        -6.6020   -0.2620    9.1190 C.3   197  TYR197      0.0534
    111  CG        -6.7370   -1.1020    7.8740 C.ar  197  TYR197     -0.0201
    112  CD1       -5.6030   -1.4520    7.1260 C.ar  197  TYR197     -0.0009
    113  CD2       -7.9710   -1.6110    7.4770 C.ar  197  TYR197     -0.0009
    114  CE1       -5.6980   -2.2900    6.0200 C.ar  197  TYR197      0.0417
    115  CE2       -8.0770   -2.4520    6.3690 C.ar  197  TYR197      0.0417
    116  CZ        -6.9360   -2.7840    5.6480 C.ar  197  TYR197      0.1957
    117  OH        -7.0340   -3.6050    4.5460 O.3   197  TYR197     -0.2866
    118  N         -3.5010    1.7060   14.0420 N.3   199  ASN199     -0.1240
    119  CA        -2.1370    2.2290   14.0250 C.3   199  ASN199      0.1653
    120  C         -1.3670    1.7560   15.2470 C.2   199  ASN199      0.2266
    121  O         -1.9470    1.4620   16.2970 O.2   199  ASN199     -0.2867
    122  CB        -2.1460    3.7540   13.9370 C.3   199  ASN199      0.1155
    123  CG        -2.5030    4.2470   12.5410 C.2   199  ASN199      0.2627
    124  OD1       -3.3970    3.6950   11.8790 O.2   199  ASN199     -0.2716
    125  ND2       -1.8120    5.2850   12.0850 N.am  199  ASN199     -0.0877
@<TRIPOS>BOND
     1    70    69    2
     2    69    68    1
     3    75    76    1
     4    77    78    2
     5    77    76    1
     6    68    67    1
     7    68    71    1
     8    76    79    1
     9    71    72    1
    10    66    64    1
    11    93    91   am
    12    79    80    1
    13    86    87    1
    14    64    65    1
    15    64    63    1
    16    72    73    2
    17    72    74   am
    18    91    90    1
    19    91    92    2
    20    80    81    1
    21     8    10   ar
    22     8     6   ar
    23    51    53   ar
    24    51    49   ar
    25     1     2    1
    26    87    90    1
    27    87    88    1
    28    10    11   ar
    29     5     6    1
    30     5     2    1
    31    63    60    1
    32   117   116    1
    33    53    52   ar
    34     3     2    1
    35     3     4    2
    36     6     7   ar
    37    49    48   ar
    38    81    82    1
    39    61    62    2
    40    61    60    1
    41    89    88    2
    42    88    94   am
    43    11    12    1
    44    11     9   ar
    45    60    59    1
    46   116   114   ar
    47   116   115   ar
    48     7     9   ar
    49    82    83    2
    50    52    50   ar
    51    48    50   ar
    52    48    47    1
    53   114   112   ar
    54    46    45    2
    55    94    95    1
    56   115   113   ar
    57    44    47    1
    58    44    45    1
    59    44    43    1
    60    84    83    1
    61    42    41   ar
    62    42    40   ar
    63    83    85    1
    64    41    39   ar
    65   104   105    2
    66   104   103    1
    67   112   111   ar
    68    95    96    1
    69    95    98    1
    70   113   111   ar
    71    97    96    2
    72    96   102   am
    73   111   110    1
    74   102   103    1
    75    40    38   ar
    76    39    38   ar
    77    21    23   ar
    78    21    19   ar
    79    98    99    1
    80    38    37    1
    81    23    22   ar
    82    19    18   ar
    83   110   107    1
    84    57    56    2
    85    31    30    2
    86    99   101   am
    87    99   100    2
    88    28    25    1
    89    28    29    1
    90    16    15    2
    91   107   106    1
    92   107   108    1
    93    36    35    2
    94    22    20   ar
    95    56    55    1
    96    18    20   ar
    97    18    17    1
    98    37    34    1
    99    33    34    1
   100    33    26   am
   101    25    26    1
   102    25    24    1
   103    30    29    1
   104    30    32   am
   105    35    34    1
   106    15    24   am
   107    15    14    1
   108    17    14    1
   109    26    27    2
   110   109   108    2
   111    58    55    1
   112    55    54    1
   113    14    13    1
   114   124   123    2
   115   125   123   am
   116   123   122    1
   117   122   119    1
   118   119   118    1
   119   119   120    1
   120   120   121    2
