@<TRIPOS>MOLECULE
tmp/1p9bA01.pdb
 86 79 0 0 0
SMALL
GASTEIGER

@<TRIPOS>ATOM
      1  N         26.9370   79.3980   27.2090 N.3    13  ASP13      -0.1239
      2  CA        25.7900   79.1430   28.0750 C.3    13  ASP13       0.1674
      3  C         25.0810   77.8270   27.7730 C.2    13  ASP13       0.2266
      4  O         23.8590   77.7200   27.9130 O.2    13  ASP13      -0.2867
      5  CB        24.7960   80.3050   27.9640 C.3    13  ASP13       0.1410
      6  CG        25.4860   81.6590   28.0150 C.2    13  ASP13       0.3668
      7  OD1       26.4840   81.7760   28.7470 O.co2  13  ASP13      -0.2456
      8  OD2       25.0410   82.6050   27.3380 O.co2  13  ASP13      -0.2456
      9  N         34.3760   87.1600   31.3090 N.3    38  ASN38      -0.1225
     10  CA        33.2480   87.3610   30.4070 C.3    38  ASN38       0.1785
     11  C         32.4030   86.1020   30.5770 C.2    38  ASN38       0.2597
     12  O         31.1750   86.1200   30.4450 O.2    38  ASN38      -0.2718
     13  CB        33.6840   87.5480   28.9310 C.3    38  ASN38       0.1169
     14  CG        34.7850   86.5820   28.4790 C.2    38  ASN38       0.2627
     15  OD1       35.1160   86.5290   27.2830 O.2    38  ASN38      -0.2716
     16  ND2       35.3610   85.8370   29.4080 N.am   38  ASN38      -0.0877
     17  N         33.0850   85.0100   30.9100 N.am   39  ALA39      -0.1966
     18  CA        32.4310   83.7300   31.1400 C.3    39  ALA39       0.1728
     19  C         31.5650   83.8120   32.3960 C.2    39  ALA39       0.2616
     20  O         31.9140   84.4930   33.3630 O.2    39  ALA39      -0.2715
     21  CB        33.4840   82.6350   31.3100 C.3    39  ALA39       0.0334
     22  N         30.4360   83.1160   32.3700 N.am   40  GLY40      -0.1955
     23  CA        29.5360   83.0900   33.5110 C.3    40  GLY40       0.1869
     24  C         29.0510   81.6580   33.6210 C.2    40  GLY40       0.2309
     25  O         28.1710   81.2460   32.8720 O.2    40  GLY40      -0.2863
     26  N         30.8780   91.6840   26.5010 N.3   128  THR128     -0.1218
     27  CA        30.4170   91.7060   27.8880 C.3   128  THR128      0.1862
     28  C         30.9820   92.9190   28.6220 C.2   128  THR128      0.2287
     29  O         30.6830   93.1340   29.7970 O.2   128  THR128     -0.2866
     30  CB        30.8500   90.4480   28.6660 C.3   128  THR128      0.1770
     31  OG1       32.2790   90.4100   28.7520 O.3   128  THR128     -0.2211
     32  CG2       30.3370   89.1790   27.9790 C.3   128  THR128      0.0375
     33  N         24.0600   85.7230   23.1230 N.3   268  VAL268     -0.1245
     34  CA        23.7960   87.0200   23.7170 C.3   268  VAL268      0.1561
     35  C         24.8960   87.9250   23.1880 C.2   268  VAL268      0.2260
     36  O         26.0840   87.6230   23.3240 O.2   268  VAL268     -0.2867
     37  CB        23.7940   86.9260   25.2670 C.3   268  VAL268      0.0252
     38  CG1       25.1270   86.3770   25.7660 C.3   268  VAL268      0.0019
     39  CG2       23.4770   88.2860   25.8740 C.3   268  VAL268      0.0019
     40  N         21.8460   86.5280   30.6230 N.3   293  GLY293     -0.1210
     41  CA        23.2800   86.4480   30.8390 C.3   293  GLY293      0.1956
     42  C         23.7550   86.2610   32.2650 C.2   293  GLY293      0.2613
     43  O         23.4810   87.0850   33.1320 O.2   293  GLY293     -0.2717
     44  N         24.4830   85.1780   32.5070 N.am  294  THR294     -0.1938
     45  CA        25.0090   84.9090   33.8400 C.3   294  THR294      0.2028
     46  C         25.9540   86.0350   34.2590 C.2   294  THR294      0.2643
     47  O         26.0960   86.3280   35.4450 O.2   294  THR294     -0.2714
     48  CB        25.7910   83.5900   33.8760 C.3   294  THR294      0.1808
     49  OG1       24.9600   82.5310   33.3840 O.3   294  THR294     -0.2208
     50  CG2       26.2360   83.2690   35.3120 C.3   294  THR294      0.0379
     51  N         26.5870   86.6700   33.2760 N.am  295  THR295     -0.1936
     52  CA        27.5370   87.7490   33.5400 C.3   295  THR295      0.2028
     53  C         26.9640   89.1700   33.4450 C.2   295  THR295      0.2642
     54  O         27.1820   89.9930   34.3370 O.2   295  THR295     -0.2714
     55  CB        28.7490   87.6500   32.5750 C.3   295  THR295      0.1808
     56  OG1       29.4340   86.4060   32.7840 O.3   295  THR295     -0.2208
     57  CG2       29.7190   88.7970   32.8040 C.3   295  THR295      0.0379
     58  N         26.2250   89.4510   32.3730 N.am  296  THR296     -0.1950
     59  CA        25.6770   90.7890   32.1450 C.3   296  THR296      0.1897
     60  C         24.1830   90.9450   32.4100 C.2   296  THR296      0.2313
     61  O         23.6740   92.0670   32.4320 O.2   296  THR296     -0.2863
     62  CB        25.9260   91.2160   30.6890 C.3   296  THR296      0.1794
     63  OG1       25.1890   90.3480   29.8200 O.3   296  THR296     -0.2208
     64  CG2       27.4100   91.1100   30.3460 C.3   296  THR296      0.0378
     65  N         21.9420   90.3500   30.4480 N.3   298  ARG298     -0.1245
     66  CA        21.2660   90.6760   29.1920 C.3   298  ARG298      0.1563
     67  C         20.3690   89.5220   28.7450 C.2   298  ARG298      0.2260
     68  O         20.6860   88.3530   28.9610 O.2   298  ARG298     -0.2867
     69  CB        22.2860   90.9660   28.0800 C.3   298  ARG298      0.0307
     70  CG        23.0450   92.2920   28.2010 C.3   298  ARG298      0.0489
     71  CD        24.1040   92.4000   27.0880 C.3   298  ARG298      0.2205
     72  NE        25.1310   91.3620   27.2150 N.pl3 298  ARG298     -0.0865
     73  CZ        26.0340   91.0780   26.2800 C.cat 298  ARG298      0.5346
     74  NH1       26.0460   91.7500   25.1350 N.pl3 298  ARG298      0.1354
     75  NH2       26.9260   90.1160   26.4870 N.pl3 298  ARG298      0.1354
     76  N         19.0070   86.7030   26.5730 N.3   300  ARG300     -0.1245
     77  CA        19.6150   85.9140   25.5070 C.3   300  ARG300      0.1563
     78  C         18.6810   85.6910   24.3270 C.2   300  ARG300      0.2260
     79  O         17.4790   85.4870   24.5010 O.2   300  ARG300     -0.2867
     80  CB        20.0570   84.5490   26.0390 C.3   300  ARG300      0.0307
     81  CG        21.1420   84.6100   27.0930 C.3   300  ARG300      0.0489
     82  CD        21.4810   83.2160   27.6050 C.3   300  ARG300      0.2205
     83  NE        22.6380   83.2330   28.4950 N.pl3 300  ARG300     -0.0865
     84  CZ        22.6930   82.6000   29.6620 C.cat 300  ARG300      0.5346
     85  NH1       21.6490   81.8950   30.0890 N.pl3 300  ARG300      0.1354
     86  NH2       23.7940   82.6700   30.4010 N.pl3 300  ARG300      0.1354
@<TRIPOS>BOND
     1    33    34    1
     2    35    36    2
     3    35    34    1
     4    34    37    1
     5    78    79    2
     6    78    77    1
     7    74    73    1
     8    37    38    1
     9    37    39    1
    10    77    80    1
    11    77    76    1
    12    80    81    1
    13    73    75    1
    14    73    72    2
    15    26    27    1
    16    71    72    1
    17    71    70    1
    18    81    82    1
    19     1     2    1
    20    15    14    2
    21     8     6   ar
    22    82    83    1
    23     3     4    2
    24     3     2    1
    25    27    28    1
    26    27    30    1
    27     5     6    1
    28     5     2    1
    29    32    30    1
    30     6     7   ar
    31    69    70    1
    32    69    66    1
    33    14    13    1
    34    14    16   am
    35    83    84    2
    36    28    29    2
    37    30    31    1
    38    67    68    2
    39    67    66    1
    40    13    10    1
    41    66    65    1
    42    84    85    1
    43    84    86    1
    44    63    62    1
    45    64    62    1
    46    10    11    1
    47    10     9    1
    48    12    11    2
    49    11    17   am
    50    40    41    1
    51    62    59    1
    52    41    42    1
    53    17    18    1
    54    18    21    1
    55    18    19    1
    56    59    58    1
    57    59    60    1
    58    42    44   am
    59    42    43    2
    60    22    19   am
    61    22    23    1
    62    58    53   am
    63    19    20    2
    64    60    61    2
    65    44    45    1
    66    55    56    1
    67    55    57    1
    68    55    52    1
    69    25    24    2
    70    51    52    1
    71    51    46   am
    72    49    48    1
    73    53    52    1
    74    53    54    2
    75    23    24    1
    76    45    48    1
    77    45    46    1
    78    48    50    1
    79    46    47    2
