@<TRIPOS>MOLECULE
tmp/1p9bA02.pdb
 166 158 0 0 0
SMALL
GASTEIGER

@<TRIPOS>ATOM
      1  N         26.9370   79.3980   27.2090 N.3    13  ASP13      -0.1225
      2  CA        25.7900   79.1430   28.0750 C.3    13  ASP13       0.1805
      3  C         25.0810   77.8270   27.7730 C.2    13  ASP13       0.2598
      4  O         23.8590   77.7200   27.9130 O.2    13  ASP13      -0.2718
      5  CB        24.7960   80.3050   27.9640 C.3    13  ASP13       0.1424
      6  CG        25.4860   81.6590   28.0150 C.2    13  ASP13       0.3668
      7  OD1       26.4840   81.7760   28.7470 O.co2  13  ASP13      -0.2456
      8  OD2       25.0410   82.6050   27.3380 O.co2  13  ASP13      -0.2456
      9  N         25.8460   76.8210   27.3700 N.am   14  GLU14      -0.1965
     10  CA        25.2600   75.5250   27.0570 C.3    14  GLU14       0.1733
     11  C         25.0230   74.6760   28.3080 C.2    14  GLU14       0.2617
     12  O         24.3020   73.6800   28.2580 O.2    14  GLU14      -0.2715
     13  CB        26.1510   74.7640   26.0710 C.3    14  GLU14       0.0429
     14  CG        26.3760   75.4910   24.7500 C.3    14  GLU14       0.1163
     15  CD        27.6130   76.3880   24.7540 C.2    14  GLU14       0.3649
     16  OE1       28.1660   76.6650   25.8380 O.co2  14  GLU14      -0.2457
     17  OE2       28.0290   76.8170   23.6590 O.co2  14  GLU14      -0.2457
     18  N         25.6220   75.0840   29.4260 N.am   15  GLY15      -0.1940
     19  CA        25.4800   74.3510   30.6740 C.3    15  GLY15       0.2014
     20  C         26.8020   73.7360   31.1060 C.2    15  GLY15       0.2639
     21  O         26.8340   72.6780   31.7360 O.2    15  GLY15      -0.2714
     22  N         27.9000   74.4070   30.7710 N.am   16  LYS16      -0.1963
     23  CA        29.2420   73.9210   31.0980 C.3    16  LYS16       0.1728
     24  C         29.5270   73.8570   32.5980 C.2    16  LYS16       0.2617
     25  O         30.0640   72.8660   33.0930 O.2    16  LYS16      -0.2715
     26  CB        30.2940   74.8020   30.4090 C.3    16  LYS16       0.0311
     27  CG        30.2260   74.7510   28.8910 C.3    16  LYS16       0.0038
     28  CD        31.2860   75.6310   28.2310 C.3    16  LYS16       0.0206
     29  CE        31.0540   77.0970   28.5430 C.3    16  LYS16       0.1093
     30  NZ        29.7050   77.5500   28.0980 N.3    16  LYS16      -0.1314
     31  N         29.1760   74.9180   33.3140 N.am   17  GLY17      -0.1940
     32  CA        29.4010   74.9450   34.7470 C.3    17  GLY17       0.2014
     33  C         28.7110   73.7850   35.4420 C.2    17  GLY17       0.2638
     34  O         29.2480   73.2040   36.3890 O.2    17  GLY17      -0.2714
     35  N         27.5220   73.4390   34.9640 N.am   18  LYS18      -0.1977
     36  CA        26.7540   72.3450   35.5500 C.3    18  LYS18       0.1596
     37  C         27.4370   70.9920   35.4140 C.2    18  LYS18       0.2287
     38  O         27.5400   70.2450   36.3890 O.2    18  LYS18      -0.2864
     39  CB        25.3680   72.2580   34.9160 C.3    18  LYS18       0.0298
     40  CG        24.5850   71.0390   35.3780 C.3    18  LYS18       0.0038
     41  CD        23.2460   70.9260   34.6710 C.3    18  LYS18       0.0206
     42  CE        22.5480   69.6130   35.0140 C.3    18  LYS18       0.1093
     43  NZ        21.3210   69.4340   34.1830 N.3    18  LYS18      -0.1314
     44  N         30.4360   83.1160   32.3700 N.3    40  GLY40      -0.1210
     45  CA        29.5360   83.0900   33.5110 C.3    40  GLY40       0.1956
     46  C         29.0510   81.6580   33.6210 C.2    40  GLY40       0.2612
     47  O         28.1710   81.2460   32.8720 O.2    40  GLY40      -0.2717
     48  N         29.6200   80.8890   34.5380 N.am   41  HIS41      -0.1961
     49  CA        29.2340   79.4890   34.6740 C.3    41  HIS41       0.1787
     50  C         28.4310   79.2050   35.9380 C.2    41  HIS41       0.2620
     51  O         28.9320   79.3050   37.0590 O.2    41  HIS41      -0.2715
     52  CB        30.4850   78.6180   34.5870 C.3    41  HIS41       0.0785
     53  CG        31.2110   78.7480   33.2840 C.ar   41  HIS41       0.0821
     54  ND1       32.4130   78.1250   33.0340 N.ar   41  HIS41      -0.2267
     55  CD2       30.9000   79.4300   32.1530 C.ar   41  HIS41       0.1154
     56  CE1       32.8140   78.4150   31.8070 C.ar   41  HIS41       0.1986
     57  NE2       31.9140   79.2060   31.2510 N.ar   41  HIS41      -0.2212
     58  N         27.1710   78.8370   35.7310 N.am   42  THR42      -0.1951
     59  CA        26.2280   78.5780   36.8120 C.3    42  THR42       0.1897
     60  C         26.1800   77.1500   37.3420 C.2    42  THR42       0.2313
     61  O         26.0360   76.1910   36.5810 O.2    42  THR42      -0.2863
     62  CB        24.7990   78.9600   36.3710 C.3    42  THR42       0.1794
     63  OG1       24.8170   80.2800   35.8170 O.3    42  THR42      -0.2208
     64  CG2       23.8240   78.9180   37.5510 C.3    42  THR42       0.0378
     65  N         24.2210   74.7120   40.3000 N.3    44  SER44      -0.1217
     66  CA        23.0100   74.6990   41.1060 C.3    44  SER44       0.1889
     67  C         22.9030   73.3920   41.8750 C.2    44  SER44       0.2288
     68  O         22.9530   72.3070   41.2940 O.2    44  SER44      -0.2866
     69  CB        21.7650   74.8910   40.2320 C.3    44  SER44       0.2089
     70  OG        20.6020   75.0410   41.0370 O.3    44  SER44      -0.2183
     71  N         21.8050   78.4430   43.5850 N.3    49  LYS49      -0.1245
     72  CA        22.7240   78.7170   42.4930 C.3    49  LYS49       0.1561
     73  C         23.9940   79.4710   42.8600 C.2    49  LYS49       0.2260
     74  O         23.9960   80.3380   43.7320 O.2    49  LYS49      -0.2867
     75  CB        21.9970   79.4630   41.3680 C.3    49  LYS49       0.0271
     76  CG        21.0120   78.5960   40.5940 C.3    49  LYS49       0.0035
     77  CD        20.6620   79.2140   39.2490 C.3    49  LYS49       0.0206
     78  CE        19.9240   78.2210   38.3600 C.3    49  LYS49       0.1093
     79  NZ        19.7370   78.7340   36.9760 N.3    49  LYS49      -0.1314
     80  N         10.9970   79.8720   30.0950 N.3   288  LYS288     -0.1231
     81  CA        11.0530   78.5600   30.7330 C.3   288  LYS288      0.1693
     82  C         12.5000   78.2250   31.1020 C.2   288  LYS288      0.2593
     83  O         12.7650   77.6560   32.1570 O.2   288  LYS288     -0.2718
     84  CB        10.5020   77.4680   29.8050 C.3   288  LYS288      0.0285
     85  CG         8.9730   77.4430   29.6780 C.3   288  LYS288      0.0035
     86  CD         8.3120   77.3120   31.0470 C.3   288  LYS288      0.0206
     87  CE         6.8250   76.9790   30.9310 C.3   288  LYS288      0.1093
     88  NZ         6.6020   75.5610   30.5460 N.3   288  LYS288     -0.1314
     89  N         13.4350   78.5850   30.2300 N.am  289  GLY289     -0.1942
     90  CA        14.8360   78.2970   30.5000 C.3   289  GLY289      0.2014
     91  C         15.5850   79.4680   31.1090 C.2   289  GLY289      0.2638
     92  O         16.8110   79.4160   31.2370 O.2   289  GLY289     -0.2714
     93  N         14.8440   80.5090   31.4950 N.am  290  HIS290     -0.1973
     94  CA        15.4070   81.7300   32.0820 C.3   290  HIS290      0.1656
     95  C         16.7410   82.0720   31.4170 C.2   290  HIS290      0.2291
     96  O         17.8010   82.0350   32.0500 O.2   290  HIS290     -0.2864
     97  CB        15.6050   81.5660   33.5930 C.3   290  HIS290      0.0771
     98  CG        15.8250   82.8620   34.3120 C.ar  290  HIS290      0.0820
     99  ND1       17.0110   83.1760   34.9400 N.ar  290  HIS290     -0.2267
    100  CD2       15.0180   83.9390   34.4720 C.ar  290  HIS290      0.1154
    101  CE1       16.9270   84.3900   35.4550 C.ar  290  HIS290      0.1986
    102  NE2       15.7280   84.8750   35.1840 N.ar  290  HIS290     -0.2212
    103  N         24.4830   85.1780   32.5070 N.3   294  THR294     -0.1218
    104  CA        25.0090   84.9090   33.8400 C.3   294  THR294      0.1862
    105  C         25.9540   86.0350   34.2590 C.2   294  THR294      0.2287
    106  O         26.0960   86.3280   35.4450 O.2   294  THR294     -0.2866
    107  CB        25.7910   83.5900   33.8760 C.3   294  THR294      0.1770
    108  OG1       24.9600   82.5310   33.3840 O.3   294  THR294     -0.2211
    109  CG2       26.2360   83.2690   35.3120 C.3   294  THR294      0.0375
    110  N         19.0070   86.7030   26.5730 N.3   300  ARG300     -0.1245
    111  CA        19.6150   85.9140   25.5070 C.3   300  ARG300      0.1563
    112  C         18.6810   85.6910   24.3270 C.2   300  ARG300      0.2260
    113  O         17.4790   85.4870   24.5010 O.2   300  ARG300     -0.2867
    114  CB        20.0570   84.5490   26.0390 C.3   300  ARG300      0.0307
    115  CG        21.1420   84.6100   27.0930 C.3   300  ARG300      0.0489
    116  CD        21.4810   83.2160   27.6050 C.3   300  ARG300      0.2205
    117  NE        22.6380   83.2330   28.4950 N.pl3 300  ARG300     -0.0865
    118  CZ        22.6930   82.6000   29.6620 C.cat 300  ARG300      0.5346
    119  NH1       21.6490   81.8950   30.0890 N.pl3 300  ARG300      0.1354
    120  NH2       23.7940   82.6700   30.4010 N.pl3 300  ARG300      0.1354
    121  N         21.8460   69.4840   26.7900 N.3   325  THR325     -0.1203
    122  CA        21.2600   70.1690   27.9320 C.3   325  THR325      0.1994
    123  C         19.9300   70.8850   27.7430 C.2   325  THR325      0.2617
    124  O         19.5210   71.2070   26.6270 O.2   325  THR325     -0.2717
    125  CB        22.2480   71.2010   28.4770 C.3   325  THR325      0.1784
    126  OG1       22.3080   72.3080   27.5720 O.3   325  THR325     -0.2211
    127  CG2       23.6430   70.5880   28.6000 C.3   325  THR325      0.0376
    128  N         19.2810   71.1370   28.8770 N.am  326  LYS326     -0.1979
    129  CA        18.0120   71.8480   28.9500 C.3   326  LYS326      0.1596
    130  C         16.8860   71.2520   28.1190 C.2   326  LYS326      0.2287
    131  O         16.0080   71.9710   27.6460 O.2   326  LYS326     -0.2864
    132  CB        18.2300   73.3200   28.5750 C.3   326  LYS326      0.0298
    133  CG        19.4970   73.9070   29.1920 C.3   326  LYS326      0.0038
    134  CD        19.5250   75.4330   29.1720 C.3   326  LYS326      0.0206
    135  CE        18.5040   76.0230   30.1370 C.3   326  LYS326      0.1093
    136  NZ        18.7580   77.4780   30.3620 N.3   326  LYS326     -0.1314
    137  N         14.5460   69.6770   29.1960 N.3   328  ASP328     -0.1225
    138  CA        13.3400   69.9150   29.9880 C.3   328  ASP328      0.1805
    139  C         12.6280   71.2080   29.6010 C.2   328  ASP328      0.2597
    140  O         11.4190   71.3380   29.7890 O.2   328  ASP328     -0.2718
    141  CB        13.6890   69.9580   31.4790 C.3   328  ASP328      0.1424
    142  CG        14.7070   71.0330   31.8090 C.2   328  ASP328      0.3668
    143  OD1       15.8460   70.9590   31.2950 O.co2 328  ASP328     -0.2456
    144  OD2       14.3660   71.9530   32.5770 O.co2 328  ASP328     -0.2456
    145  N         13.3760   72.1660   29.0660 N.am  329  VAL329     -0.1980
    146  CA        12.7870   73.4400   28.6720 C.3   329  VAL329      0.1595
    147  C         11.8300   73.2890   27.4870 C.2   329  VAL329      0.2287
    148  O         10.8670   74.0460   27.3590 O.2   329  VAL329     -0.2864
    149  CB        13.8880   74.4690   28.3110 C.3   329  VAL329      0.0276
    150  CG1       13.2580   75.7660   27.8120 C.3   329  VAL329      0.0022
    151  CG2       14.7560   74.7420   29.5350 C.3   329  VAL329      0.0022
    152  N         20.4550   66.7160   30.1510 N.3   412  GLY412     -0.1225
    153  CA        20.1340   67.6300   31.2280 C.3   412  GLY412      0.1811
    154  C         18.6450   67.9050   31.2590 C.2   412  GLY412      0.2280
    155  O         18.0540   68.2470   30.2340 O.2   412  GLY412     -0.2866
    156  N         17.2920   69.7370   34.1080 N.3   414  GLY414     -0.1210
    157  CA        17.1310   70.6860   35.1940 C.3   414  GLY414      0.1940
    158  C         18.4620   71.3470   35.4980 C.2   414  GLY414      0.2453
    159  O         19.5060   70.7820   35.1870 O.2   414  GLY414     -0.2732
    160  N         18.4660   72.5430   36.1030 N.am  415  PRO415     -0.2728
    161  CA        19.7110   73.2460   36.4250 C.3   415  PRO415      0.1401
    162  C         20.5470   72.6410   37.5540 C.2   415  PRO415      0.2269
    163  O         21.7400   72.9270   37.6710 O.2   415  PRO415     -0.2865
    164  CB        19.2280   74.6570   36.7520 C.3   415  PRO415      0.0296
    165  CG        17.8960   74.4110   37.3700 C.3   415  PRO415      0.0237
    166  CD        17.2930   73.3630   36.4590 C.3   415  PRO415      0.0939
@<TRIPOS>BOND
     1    17    15   ar
     2   112   113    2
     3   112   111    1
     4    14    15    1
     5    14    13    1
     6    15    16   ar
     7   111   114    1
     8   111   110    1
     9   114   115    1
    10    13    10    1
    11   124   123    2
    12   121   122    1
    13    10     9    1
    14    10    11    1
    15   115   116    1
    16     1     2    1
    17     8     6   ar
    18   148   147    2
    19     9     3   am
    20   147   146    1
    21   126   125    1
    22   116   117    1
    23   131   130    2
    24   123   122    1
    25   123   128   am
    26     3     4    2
    27     3     2    1
    28   150   149    1
    29   122   125    1
    30     5     6    1
    31     5     2    1
    32     6     7   ar
    33    30    29    1
    34   130   129    1
    35    28    29    1
    36    28    27    1
    37    12    11    2
    38    11    18   am
    39   149   146    1
    40   149   151    1
    41   125   127    1
    42   117   118    2
    43   132   129    1
    44   132   133    1
    45   146   145    1
    46   128   129    1
    47    27    26    1
    48   145   139   am
    49   134   133    1
    50   134   135    1
    51   137   138    1
    52    18    19    1
    53   139   140    2
    54   139   138    1
    55   118   119    1
    56   118   120    1
    57    85    84    1
    58    85    86    1
    59    84    81    1
    60   138   141    1
    61    80    81    1
    62   135   136    1
    63   152   153    1
    64    89    90    1
    65    89    82   am
    66   155   154    2
    67    26    23    1
    68    90    91    1
    69    88    87    1
    70    19    20    1
    71    81    82    1
    72    22    23    1
    73    22    20   am
    74    87    86    1
    75    23    24    1
    76    82    83    2
    77    20    21    2
    78    91    92    2
    79    91    93   am
    80   153   154    1
    81    57    56   ar
    82    57    55   ar
    83   143   142   ar
    84    95    96    2
    85    95    94    1
    86   141   142    1
    87    93    94    1
    88    56    54   ar
    89   142   144   ar
    90    94    97    1
    91    55    53   ar
    92    44    45    1
    93   103   104    1
    94    24    25    2
    95    24    31   am
    96    47    46    2
    97    54    53   ar
    98    53    52    1
    99    31    32    1
   100   108   107    1
   101    45    46    1
   102    97    98    1
   103    46    48   am
   104   104   107    1
   105   104   105    1
   106   107   109    1
   107   156   157    1
   108    43    42    1
   109   105   106    2
   110    98   100   ar
   111    98    99   ar
   112   100   102   ar
   113    48    49    1
   114    52    49    1
   115    41    42    1
   116    41    40    1
   117    49    50    1
   118    32    33    1
   119    39    40    1
   120    39    36    1
   121    99   101   ar
   122    35    33   am
   123    35    36    1
   124   102   101   ar
   125   159   158    2
   126   157   158    1
   127    37    36    1
   128    37    38    2
   129    33    34    2
   130   158   160   am
   131    58    50   am
   132    58    59    1
   133    63    62    1
   134    50    51    2
   135   160   161    1
   136   160   166    1
   137    62    59    1
   138    62    64    1
   139   161   164    1
   140   161   162    1
   141   166   165    1
   142    61    60    2
   143   164   165    1
   144    59    60    1
   145    79    78    1
   146   162   163    2
   147    78    77    1
   148    77    76    1
   149    69    70    1
   150    69    66    1
   151    65    66    1
   152    76    75    1
   153    66    67    1
   154    68    67    2
   155    75    72    1
   156    72    73    1
   157    72    71    1
   158    73    74    2
