@<TRIPOS>MOLECULE
tmp/1p9bA00.pdb
 215 208 0 0 0
SMALL
GASTEIGER

@<TRIPOS>ATOM
      1  N         27.1540   79.0810   21.1000 N.3    11  TRP11      -0.1227
      2  CA        27.5570   80.4460   21.4530 C.3    11  TRP11       0.1737
      3  C         27.5620   80.6600   22.9680 C.2    11  TRP11       0.2596
      4  O         27.1260   81.7090   23.4670 O.2    11  TRP11      -0.2718
      5  CB        26.6260   81.4720   20.8020 C.3    11  TRP11       0.0564
      6  CG        26.8260   81.6680   19.3200 C.ar   11  TRP11       0.0003
      7  CD1       27.9390   82.1690   18.6940 C.ar   11  TRP11       0.0946
      8  CD2       25.8580   81.4340   18.2890 C.ar   11  TRP11       0.0152
      9  NE1       27.7160   82.2650   17.3360 N.ar   11  TRP11      -0.2442
     10  CE2       26.4470   81.8200   17.0630 C.ar   11  TRP11       0.0810
     11  CE3       24.5440   80.9380   18.2830 C.ar   11  TRP11       0.0012
     12  CZ2       25.7660   81.7260   15.8390 C.ar   11  TRP11       0.0191
     13  CZ3       23.8660   80.8460   17.0650 C.ar   11  TRP11       0.0001
     14  CH2       24.4800   81.2390   15.8620 C.ar   11  TRP11       0.0015
     15  N         28.0450   79.6520   23.6880 N.am   12  GLY12      -0.1942
     16  CA        28.1240   79.7230   25.1360 C.3    12  GLY12       0.2014
     17  C         26.8400   79.4080   25.8830 C.2    12  GLY12       0.2638
     18  O         25.7900   79.1690   25.2820 O.2    12  GLY12      -0.2714
     19  N         26.9370   79.3980   27.2090 N.am   13  ASP13      -0.1971
     20  CA        25.7900   79.1430   28.0750 C.3    13  ASP13       0.1709
     21  C         25.0810   77.8270   27.7730 C.2    13  ASP13       0.2293
     22  O         23.8590   77.7200   27.9130 O.2    13  ASP13      -0.2864
     23  CB        24.7960   80.3050   27.9640 C.3    13  ASP13       0.1436
     24  CG        25.4860   81.6590   28.0150 C.2    13  ASP13       0.3671
     25  OD1       26.4840   81.7760   28.7470 O.co2  13  ASP13      -0.2456
     26  OD2       25.0410   82.6050   27.3380 O.co2  13  ASP13      -0.2456
     27  N         27.9000   74.4070   30.7710 N.3    16  LYS16      -0.1245
     28  CA        29.2420   73.9210   31.0980 C.3    16  LYS16       0.1561
     29  C         29.5270   73.8570   32.5980 C.2    16  LYS16       0.2260
     30  O         30.0640   72.8660   33.0930 O.2    16  LYS16      -0.2867
     31  CB        30.2940   74.8020   30.4090 C.3    16  LYS16       0.0271
     32  CG        30.2260   74.7510   28.8910 C.3    16  LYS16       0.0035
     33  CD        31.2860   75.6310   28.2310 C.3    16  LYS16       0.0206
     34  CE        31.0540   77.0970   28.5430 C.3    16  LYS16       0.1093
     35  NZ        29.7050   77.5500   28.0980 N.3    16  LYS16      -0.1314
     36  N         34.3760   87.1600   31.3090 N.3    38  ASN38      -0.1225
     37  CA        33.2480   87.3610   30.4070 C.3    38  ASN38       0.1785
     38  C         32.4030   86.1020   30.5770 C.2    38  ASN38       0.2597
     39  O         31.1750   86.1200   30.4450 O.2    38  ASN38      -0.2718
     40  CB        33.6840   87.5480   28.9310 C.3    38  ASN38       0.1169
     41  CG        34.7850   86.5820   28.4790 C.2    38  ASN38       0.2627
     42  OD1       35.1160   86.5290   27.2830 O.2    38  ASN38      -0.2716
     43  ND2       35.3610   85.8370   29.4080 N.am   38  ASN38      -0.0877
     44  N         33.0850   85.0100   30.9100 N.am   39  ALA39      -0.1966
     45  CA        32.4310   83.7300   31.1400 C.3    39  ALA39       0.1728
     46  C         31.5650   83.8120   32.3960 C.2    39  ALA39       0.2617
     47  O         31.9140   84.4930   33.3630 O.2    39  ALA39      -0.2715
     48  CB        33.4840   82.6350   31.3100 C.3    39  ALA39       0.0334
     49  N         30.4360   83.1160   32.3700 N.am   40  GLY40      -0.1940
     50  CA        29.5360   83.0900   33.5110 C.3    40  GLY40       0.2014
     51  C         29.0510   81.6580   33.6210 C.2    40  GLY40       0.2638
     52  O         28.1710   81.2460   32.8720 O.2    40  GLY40      -0.2714
     53  N         29.6200   80.8890   34.5380 N.am   41  HIS41      -0.1973
     54  CA        29.2340   79.4890   34.6740 C.3    41  HIS41       0.1656
     55  C         28.4310   79.2050   35.9380 C.2    41  HIS41       0.2291
     56  O         28.9320   79.3050   37.0590 O.2    41  HIS41      -0.2864
     57  CB        30.4850   78.6180   34.5870 C.3    41  HIS41       0.0771
     58  CG        31.2110   78.7480   33.2840 C.ar   41  HIS41       0.0820
     59  ND1       32.4130   78.1250   33.0340 N.ar   41  HIS41      -0.2267
     60  CD2       30.9000   79.4300   32.1530 C.ar   41  HIS41       0.1154
     61  CE1       32.8140   78.4150   31.8070 C.ar   41  HIS41       0.1986
     62  NE2       31.9140   79.2060   31.2510 N.ar   41  HIS41      -0.2212
     63  N         37.4260   98.6590   26.3940 N.3   111  ASP111     -0.1239
     64  CA        36.3940   97.7850   25.8300 C.3   111  ASP111      0.1674
     65  C         35.1370   98.6330   25.5910 C.2   111  ASP111      0.2266
     66  O         34.5450   98.5920   24.5140 O.2   111  ASP111     -0.2867
     67  CB        36.0820   96.6460   26.8170 C.3   111  ASP111      0.1410
     68  CG        35.2530   95.5230   26.2020 C.2   111  ASP111      0.3668
     69  OD1       34.7820   95.6560   25.0520 O.co2 111  ASP111     -0.2456
     70  OD2       35.0700   94.4890   26.8850 O.co2 111  ASP111     -0.2456
     71  N         29.8920   95.0320   18.7570 N.3   125  ILE125     -0.1231
     72  CA        29.9390   93.5780   18.8700 C.3   125  ILE125      0.1692
     73  C         28.9330   93.0940   19.9070 C.2   125  ILE125      0.2593
     74  O         28.2870   92.0580   19.7370 O.2   125  ILE125     -0.2718
     75  CB        31.3470   93.1070   19.3130 C.3   125  ILE125      0.0266
     76  CG1       32.3740   93.4490   18.2300 C.3   125  ILE125      0.0019
     77  CG2       31.3380   91.5950   19.6070 C.3   125  ILE125      0.0020
     78  CD1       33.7970   93.0480   18.5850 C.3   125  ILE125      0.0001
     79  N         28.8040   93.8710   20.9760 N.am  126  GLY126     -0.1942
     80  CA        27.9230   93.5050   22.0610 C.3   126  GLY126      0.2014
     81  C         28.7470   92.6830   23.0370 C.2   126  GLY126      0.2640
     82  O         28.2720   91.6790   23.5680 O.2   126  GLY126     -0.2714
     83  N         29.9970   93.0970   23.2510 N.am  127  THR127     -0.1936
     84  CA        30.8900   92.3910   24.1720 C.3   127  THR127      0.2028
     85  C         30.3320   92.4830   25.5870 C.2   127  THR127      0.2643
     86  O         29.4200   93.2690   25.8460 O.2   127  THR127     -0.2714
     87  CB        32.3210   93.0000   24.1820 C.3   127  THR127      0.1808
     88  OG1       32.2930   94.2870   24.8170 O.3   127  THR127     -0.2208
     89  CG2       32.8550   93.1510   22.7580 C.3   127  THR127      0.0379
     90  N         30.8780   91.6840   26.5010 N.am  128  THR128     -0.1936
     91  CA        30.4170   91.7060   27.8880 C.3   128  THR128      0.2028
     92  C         30.9820   92.9190   28.6220 C.2   128  THR128      0.2642
     93  O         30.6830   93.1340   29.7970 O.2   128  THR128     -0.2714
     94  CB        30.8500   90.4480   28.6660 C.3   128  THR128      0.1808
     95  OG1       32.2790   90.4100   28.7520 O.3   128  THR128     -0.2208
     96  CG2       30.3370   89.1790   27.9790 C.3   128  THR128      0.0379
     97  N         31.7990   93.7020   27.9220 N.am  129  LYS129     -0.1963
     98  CA        32.4180   94.8910   28.4950 C.3   129  LYS129      0.1728
     99  C         33.2550   94.5450   29.7200 C.2   129  LYS129      0.2616
    100  O         33.3530   95.3210   30.6770 O.2   129  LYS129     -0.2715
    101  CB        31.3460   95.9240   28.8520 C.3   129  LYS129      0.0311
    102  CG        30.5780   96.4340   27.6300 C.3   129  LYS129      0.0038
    103  CD        29.6420   97.5850   27.9720 C.3   129  LYS129      0.0206
    104  CE        28.4580   97.1340   28.8260 C.3   129  LYS129      0.1093
    105  NZ        28.8590   96.6730   30.1880 N.3   129  LYS129     -0.1314
    106  N         33.8650   93.3690   29.6890 N.am  130  ARG130     -0.1977
    107  CA        34.6960   92.9410   30.7950 C.3   130  ARG130      0.1597
    108  C         36.1750   93.1490   30.4620 C.2   130  ARG130      0.2287
    109  O         37.0610   92.6840   31.1840 O.2   130  ARG130     -0.2864
    110  CB        34.3840   91.4820   31.1370 C.3   130  ARG130      0.0334
    111  CG        32.9690   91.2920   31.7320 C.3   130  ARG130      0.0492
    112  CD        32.8310   92.0960   33.0230 C.3   130  ARG130      0.2205
    113  NE        31.6050   91.8390   33.7850 N.pl3 130  ARG130     -0.0865
    114  CZ        30.4220   92.4010   33.5450 C.cat 130  ARG130      0.5346
    115  NH1       30.2690   93.2630   32.5430 N.pl3 130  ARG130      0.1354
    116  NH2       29.3930   92.1310   34.3400 N.pl3 130  ARG130      0.1354
    117  N         37.9120   91.9650   27.9400 N.3   132  ILE132     -0.1231
    118  CA        38.5910   90.7870   27.4060 C.3   132  ILE132      0.1692
    119  C         39.3560   91.0390   26.1010 C.2   132  ILE132      0.2592
    120  O         40.5290   90.6680   25.9790 O.2   132  ILE132     -0.2718
    121  CB        37.5850   89.6380   27.1750 C.3   132  ILE132      0.0266
    122  CG1       36.8020   89.3630   28.4660 C.3   132  ILE132      0.0019
    123  CG2       38.3160   88.3920   26.7070 C.3   132  ILE132      0.0020
    124  CD1       37.6590   88.9080   29.6460 C.3   132  ILE132      0.0001
    125  N         38.6920   91.6620   25.1300 N.am  133  GLY133     -0.1957
    126  CA        39.3330   91.9380   23.8530 C.3   133  GLY133      0.1869
    127  C         40.5730   92.7980   24.0070 C.2   133  GLY133      0.2309
    128  O         41.6370   92.4740   23.4700 O.2   133  GLY133     -0.2863
    129  N         33.3460   80.4450   27.1980 N.3   219  ASN219     -0.1240
    130  CA        32.7370   80.8770   25.9450 C.3   219  ASN219      0.1653
    131  C         32.4020   79.6020   25.1670 C.2   219  ASN219      0.2266
    132  O         32.0120   78.6020   25.7690 O.2   219  ASN219     -0.2867
    133  CB        33.7090   81.7660   25.1720 C.3   219  ASN219      0.1155
    134  CG        34.5600   82.6260   26.0970 C.2   219  ASN219      0.2627
    135  OD1       35.7890   82.5030   26.1130 O.2   219  ASN219     -0.2716
    136  ND2       33.9110   83.4750   26.8800 N.am  219  ASN219     -0.0877
    137  N         32.1130   81.2200   19.0990 N.3   223  LEU223     -0.1245
    138  CA        32.5990   82.5170   19.5720 C.3   223  LEU223      0.1561
    139  C         34.1290   82.5290   19.4490 C.2   223  LEU223      0.2260
    140  O         34.7890   83.5000   19.8370 O.2   223  LEU223     -0.2867
    141  CB        32.2050   82.7590   21.0320 C.3   223  LEU223      0.0270
    142  CG        30.7200   82.9920   21.3220 C.3   223  LEU223      0.0019
    143  CD1       30.5070   83.0410   22.8180 C.3   223  LEU223      0.0001
    144  CD2       30.2560   84.2990   20.6700 C.3   223  LEU223      0.0001
    145  N         31.7420   89.0000   15.5350 N.3   232  TYR232     -0.1227
    146  CA        30.8780   88.7250   16.6730 C.3   232  TYR232      0.1736
    147  C         31.3440   87.4550   17.3740 C.2   232  TYR232      0.2595
    148  O         30.6700   86.4300   17.3570 O.2   232  TYR232     -0.2718
    149  CB        29.4430   88.5910   16.1740 C.3   232  TYR232      0.0548
    150  CG        29.0360   89.8010   15.3620 C.ar  232  TYR232     -0.0200
    151  CD1       28.7740   91.0190   15.9850 C.ar  232  TYR232     -0.0009
    152  CD2       28.9890   89.7480   13.9690 C.ar  232  TYR232     -0.0009
    153  CE1       28.4770   92.1610   15.2440 C.ar  232  TYR232      0.0417
    154  CE2       28.6940   90.8900   13.2140 C.ar  232  TYR232      0.0417
    155  CZ        28.4400   92.0900   13.8620 C.ar  232  TYR232      0.1957
    156  OH        28.1420   93.2180   13.1340 O.3   232  TYR232     -0.2866
    157  N         32.5130   87.5450   17.9920 N.am  233  VAL233     -0.1966
    158  CA        33.1130   86.4190   18.6900 C.3   233  VAL233      0.1727
    159  C         33.9340   86.9680   19.8450 C.2   233  VAL233      0.2617
    160  O         34.0400   88.1870   20.0120 O.2   233  VAL233     -0.2715
    161  CB        34.0610   85.6390   17.7480 C.3   233  VAL233      0.0290
    162  CG1       33.2850   85.0780   16.5710 C.3   233  VAL233      0.0023
    163  CG2       35.1580   86.5680   17.2360 C.3   233  VAL233      0.0023
    164  N         34.5120   86.0800   20.6460 N.am  234  THR234     -0.1937
    165  CA        35.3510   86.5360   21.7420 C.3   234  THR234      0.2028
    166  C         36.7610   86.5380   21.1530 C.2   234  THR234      0.2642
    167  O         36.9590   86.0510   20.0430 O.2   234  THR234     -0.2714
    168  CB        35.2340   85.6170   22.9810 C.3   234  THR234      0.1808
    169  OG1       35.9030   86.2350   24.0910 O.3   234  THR234     -0.2208
    170  CG2       35.8310   84.2430   22.7030 C.3   234  THR234      0.0379
    171  N         37.7400   87.0800   21.8690 N.am  235  SER235     -0.1949
    172  CA        39.0870   87.1620   21.3100 C.3   235  SER235      0.1924
    173  C         40.0910   86.0790   21.6910 C.2   235  SER235      0.2314
    174  O         41.2950   86.2140   21.4240 O.2   235  SER235     -0.2863
    175  CB        39.6640   88.5500   21.6000 C.3   235  SER235      0.2116
    176  OG        39.5320   88.8760   22.9730 O.3   235  SER235     -0.2180
    177  N         22.2960   82.9560   22.0530 N.3   267  ARG267     -0.1231
    178  CA        23.5150   83.7260   21.8900 C.3   267  ARG267      0.1694
    179  C         23.1160   85.0660   22.4680 C.2   267  ARG267      0.2592
    180  O         21.9520   85.4670   22.3850 O.2   267  ARG267     -0.2718
    181  CB        23.9920   83.8280   20.4210 C.3   267  ARG267      0.0321
    182  CG        23.4100   84.9370   19.5520 C.3   267  ARG267      0.0489
    183  CD        24.2620   85.1370   18.2730 C.3   267  ARG267      0.2205
    184  NE        25.6560   85.4640   18.5910 N.pl3 267  ARG267     -0.0865
    185  CZ        26.6380   85.6180   17.7000 C.cat 267  ARG267      0.5346
    186  NH1       26.4080   85.4800   16.3990 N.pl3 267  ARG267      0.1354
    187  NH2       27.8670   85.9070   18.1150 N.pl3 267  ARG267      0.1354
    188  N         24.0600   85.7230   23.1230 N.am  268  VAL268     -0.1966
    189  CA        23.7960   87.0200   23.7170 C.3   268  VAL268      0.1727
    190  C         24.8960   87.9250   23.1880 C.2   268  VAL268      0.2617
    191  O         26.0840   87.6230   23.3240 O.2   268  VAL268     -0.2715
    192  CB        23.7940   86.9260   25.2670 C.3   268  VAL268      0.0290
    193  CG1       25.1270   86.3770   25.7660 C.3   268  VAL268      0.0023
    194  CG2       23.4770   88.2860   25.8740 C.3   268  VAL268      0.0023
    195  N         24.4750   89.0220   22.5620 N.am  269  GLY269     -0.1940
    196  CA        25.3920   89.9560   21.9370 C.3   269  GLY269      0.2014
    197  C         24.9220   90.0330   20.4920 C.2   269  GLY269      0.2639
    198  O         23.9730   89.3420   20.1210 O.2   269  GLY269     -0.2714
    199  N         25.5630   90.8540   19.6650 N.am  270  CYS270     -0.1967
    200  CA        25.1460   90.9700   18.2740 C.3   270  CYS270      0.1712
    201  C         25.7480   89.8580   17.4140 C.2   270  CYS270      0.2296
    202  O         26.5350   89.0360   17.8970 O.2   270  CYS270     -0.2864
    203  CB        25.5560   92.3350   17.7170 C.3   270  CYS270      0.0983
    204  SG        25.0380   93.7370   18.7420 S.3   270  CYS270     -0.0798
    205  N         21.9420   90.3500   30.4480 N.3   298  ARG298     -0.1245
    206  CA        21.2660   90.6760   29.1920 C.3   298  ARG298      0.1563
    207  C         20.3690   89.5220   28.7450 C.2   298  ARG298      0.2260
    208  O         20.6860   88.3530   28.9610 O.2   298  ARG298     -0.2867
    209  CB        22.2860   90.9660   28.0800 C.3   298  ARG298      0.0307
    210  CG        23.0450   92.2920   28.2010 C.3   298  ARG298      0.0489
    211  CD        24.1040   92.4000   27.0880 C.3   298  ARG298      0.2205
    212  NE        25.1310   91.3620   27.2150 N.pl3 298  ARG298     -0.0865
    213  CZ        26.0340   91.0780   26.2800 C.cat 298  ARG298      0.5346
    214  NH1       26.0460   91.7500   25.1350 N.pl3 298  ARG298      0.1354
    215  NH2       26.9260   90.1160   26.4870 N.pl3 298  ARG298      0.1354
@<TRIPOS>BOND
     1   156   155    1
     2   154   155   ar
     3   154   152   ar
     4   155   153   ar
     5   152   150   ar
     6   153   151   ar
     7   150   151   ar
     8   150   149    1
     9   145   146    1
    10    12    14   ar
    11    12    10   ar
    12    14    13   ar
    13   149   146    1
    14   186   185    1
    15   162   161    1
    16   146   147    1
    17    10     9   ar
    18    10     8   ar
    19    13    11   ar
    20   163   161    1
    21     9     7   ar
    22   148   147    2
    23   147   157   am
    24   201   202    2
    25   201   200    1
    26   185   187    1
    27   185   184    2
    28   203   200    1
    29   203   204    1
    30   161   158    1
    31   157   158    1
    32    76    78    1
    33    76    75    1
    34   183   184    1
    35   183   182    1
    36   200   199    1
    37    11     8   ar
    38     8     6   ar
    39   158   159    1
    40     7     6   ar
    41    71    72    1
    42    72    75    1
    43    72    73    1
    44   137   138    1
    45    75    77    1
    46     6     5    1
    47   139   138    1
    48   139   140    2
    49   182   181    1
    50   138   141    1
    51   199   197   am
    52    74    73    2
    53   159   160    2
    54   159   164   am
    55    73    79   am
    56   167   166    2
    57   198   197    2
    58   181   178    1
    59   197   196    1
    60   164   165    1
    61   144   142    1
    62     5     2    1
    63    79    80    1
    64   141   142    1
    65     1     2    1
    66   166   165    1
    67   166   171   am
    68   172   175    1
    69   172   173    1
    70   172   171    1
    71   142   143    1
    72   174   173    2
    73     2     3    1
    74   175   176    1
    75   165   168    1
    76   178   177    1
    77   178   179    1
    78   196   195    1
    79    80    81    1
    80   180   179    2
    81   179   188   am
    82   195   190   am
    83   170   168    1
    84    89    87    1
    85     3     4    2
    86     3    15   am
    87   168   169    1
    88    81    83   am
    89    81    82    2
    90   188   189    1
    91   190   191    2
    92   190   189    1
    93    83    84    1
    94   128   127    2
    95    15    16    1
    96   189   192    1
    97   126   127    1
    98   126   125    1
    99    84    87    1
   100    84    85    1
   101    87    88    1
   102    66    65    2
   103    69    68   ar
   104   125   119   am
   105   214   213    1
   106    16    17    1
   107   131   132    2
   108   131   130    1
   109   133   130    1
   110   133   134    1
   111   192   193    1
   112   192   194    1
   113    18    17    2
   114    85    86    2
   115    85    90   am
   116    65    64    1
   117    64    63    1
   118    64    67    1
   119    17    19   am
   120   130   129    1
   121   120   119    2
   122   134   135    2
   123   134   136   am
   124   119   118    1
   125    68    67    1
   126    68    70   ar
   127   213   215    1
   128   213   212    2
   129    90    91    1
   130   123   121    1
   131   211   212    1
   132   211   210    1
   133   121   118    1
   134   121   122    1
   135    19    20    1
   136    42    41    2
   137    26    24   ar
   138   118   117    1
   139   102   103    1
   140   102   101    1
   141    21    22    2
   142    21    20    1
   143    91    92    1
   144    91    94    1
   145    97    98    1
   146    97    92   am
   147    23    24    1
   148    23    20    1
   149   103   104    1
   150    96    94    1
   151    24    25   ar
   152   209   210    1
   153   209   206    1
   154    35    34    1
   155    33    34    1
   156    33    32    1
   157   122   124    1
   158    41    40    1
   159    41    43   am
   160    98   101    1
   161    98    99    1
   162    92    93    2
   163    94    95    1
   164   207   208    2
   165   207   206    1
   166   104   105    1
   167    32    31    1
   168    40    37    1
   169   206   205    1
   170   106    99   am
   171   106   107    1
   172    99   100    2
   173    37    38    1
   174    37    36    1
   175    31    28    1
   176    39    38    2
   177   108   107    1
   178   108   109    2
   179    38    44   am
   180    27    28    1
   181   107   110    1
   182    44    45    1
   183    28    29    1
   184   110   111    1
   185    45    48    1
   186    45    46    1
   187    62    61   ar
   188    62    60   ar
   189   111   112    1
   190    61    59   ar
   191    60    58   ar
   192    49    46   am
   193    49    50    1
   194    46    47    2
   195   115   114    1
   196    29    30    2
   197    52    51    2
   198   112   113    1
   199    59    58   ar
   200    58    57    1
   201    50    51    1
   202   114   113    2
   203   114   116    1
   204    51    53   am
   205    53    54    1
   206    57    54    1
   207    54    55    1
   208    55    56    2
