@<TRIPOS>MOLECULE
tmp/1p9uF00.pdb
 197 194 0 0 0
SMALL
GASTEIGER

@<TRIPOS>ATOM
      1  N         22.0380  101.1890   60.7240 N.3    27  LEU27      -0.1245
      2  CA        22.0770  100.7020   62.0910 C.3    27  LEU27       0.1561
      3  C         21.3120  101.6210   63.0370 C.2    27  LEU27       0.2260
      4  O         20.6020  102.5210   62.5960 O.2    27  LEU27      -0.2867
      5  CB        23.5320  100.5390   62.5320 C.3    27  LEU27       0.0270
      6  CG        24.5260  101.6170   62.0980 C.3    27  LEU27       0.0019
      7  CD1       24.2310  102.9280   62.8180 C.3    27  LEU27       0.0001
      8  CD2       25.9490  101.1440   62.3980 C.3    27  LEU27       0.0001
      9  N         31.6150  102.8390   62.5730 N.3    41  HIS41      -0.1241
     10  CA        31.7990  102.0440   61.3630 C.3    41  HIS41       0.1621
     11  C         30.6640  102.1760   60.3490 C.2    41  HIS41       0.2264
     12  O         30.7440  101.6330   59.2460 O.2    41  HIS41      -0.2867
     13  CB        32.0640  100.5620   61.7020 C.3    41  HIS41       0.0745
     14  CG        30.8780   99.8180   62.2340 C.ar   41  HIS41       0.0817
     15  ND1       30.8820   99.2000   63.4670 N.ar   41  HIS41      -0.2268
     16  CD2       29.6720   99.5460   61.6810 C.ar   41  HIS41       0.1154
     17  CE1       29.7280   98.5820   63.6500 C.ar   41  HIS41       0.1986
     18  NE2       28.9770   98.7750   62.5810 N.ar   41  HIS41      -0.2212
     19  N         33.2360   97.6270   55.3700 N.3    47  THR47      -0.1218
     20  CA        33.3450   97.0410   56.6910 C.3    47  THR47       0.1862
     21  C         34.0480   95.6770   56.7270 C.2    47  THR47       0.2287
     22  O         34.3820   95.1810   57.8040 O.2    47  THR47      -0.2866
     23  CB        31.9320   96.9490   57.3160 C.3    47  THR47       0.1770
     24  OG1       31.6450   98.1740   58.0070 O.3    47  THR47      -0.2211
     25  CG2       31.8130   95.7630   58.2630 C.3    47  THR47       0.0375
     26  N         39.8830   99.1990   58.1240 N.3    51  ILE51      -0.1245
     27  CA        39.3390  100.5370   57.9480 C.3    51  ILE51       0.1561
     28  C         40.2260  101.6510   58.4890 C.2    51  ILE51       0.2260
     29  O         40.7870  101.5400   59.5750 O.2    51  ILE51      -0.2867
     30  CB        37.9720  100.6530   58.6550 C.3    51  ILE51       0.0252
     31  CG1       37.0240   99.5730   58.1320 C.3    51  ILE51       0.0019
     32  CG2       37.4030  102.0570   58.4710 C.3    51  ILE51       0.0019
     33  CD1       35.7340   99.4680   58.9130 C.3    51  ILE51       0.0001
     34  N         39.6500  104.9680   59.7520 N.3    53  TYR53      -0.1241
     35  CA        38.6370  105.9050   60.1950 C.3    53  TYR53       0.1605
     36  C         39.0100  107.3650   60.0070 C.2    53  TYR53       0.2264
     37  O         38.1380  108.2120   59.8480 O.2    53  TYR53      -0.2867
     38  CB        38.2770  105.6250   61.6470 C.3    53  TYR53       0.0534
     39  CG        37.4830  104.3500   61.8000 C.ar   53  TYR53      -0.0201
     40  CD1       38.0990  103.1490   62.1780 C.ar   53  TYR53      -0.0009
     41  CD2       36.1180  104.3340   61.5240 C.ar   53  TYR53      -0.0009
     42  CE1       37.3630  101.9600   62.2750 C.ar   53  TYR53       0.0417
     43  CE2       35.3760  103.1630   61.6170 C.ar   53  TYR53       0.0417
     44  CZ        35.9990  101.9820   61.9920 C.ar   53  TYR53       0.1957
     45  OH        35.2390  100.8480   62.0890 O.3    53  TYR53      -0.2866
     46  N         22.2800   89.8600   68.5190 N.3   139  PHE139     -0.1227
     47  CA        22.4380   90.8700   67.4860 C.3   139  PHE139      0.1736
     48  C         22.5890   90.3140   66.0710 C.2   139  PHE139      0.2595
     49  O         23.5710   89.6430   65.7460 O.2   139  PHE139     -0.2718
     50  CB        23.6320   91.7650   67.8150 C.3   139  PHE139      0.0547
     51  CG        23.6130   92.3030   69.2140 C.ar  139  PHE139     -0.0202
     52  CD1       24.2880   91.6430   70.2350 C.ar  139  PHE139     -0.0042
     53  CD2       22.9150   93.4670   69.5140 C.ar  139  PHE139     -0.0042
     54  CE1       24.2690   92.1410   71.5370 C.ar  139  PHE139     -0.0003
     55  CE2       22.8890   93.9730   70.8120 C.ar  139  PHE139     -0.0003
     56  CZ        23.5660   93.3110   71.8250 C.ar  139  PHE139     -0.0000
     57  N         21.5900   90.5910   65.2400 N.am  140  ILE140     -0.1966
     58  CA        21.5990   90.1650   63.8480 C.3   140  ILE140      0.1727
     59  C         21.9650   91.3970   63.0300 C.2   140  ILE140      0.2616
     60  O         21.8910   92.5210   63.5310 O.2   140  ILE140     -0.2715
     61  CB        20.2070   89.6610   63.3900 C.3   140  ILE140      0.0290
     62  CG1       19.1410   90.7180   63.7100 C.3   140  ILE140      0.0022
     63  CG2       19.8890   88.3310   64.0640 C.3   140  ILE140      0.0023
     64  CD1       17.7690   90.4150   63.1520 C.3   140  ILE140      0.0001
     65  N         22.3640   91.1870   61.7810 N.am  141  ALA141     -0.1977
     66  CA        22.7320   92.2950   60.9090 C.3   141  ALA141      0.1597
     67  C         21.6670   93.3830   60.9800 C.2   141  ALA141      0.2287
     68  O         20.5000   93.1450   60.6650 O.2   141  ALA141     -0.2864
     69  CB        22.8840   91.8010   59.4700 C.3   141  ALA141      0.0319
     70  N         23.0700   96.6090   64.9690 N.3   144  CYS144     -0.1235
     71  CA        24.2480   97.3710   65.3390 C.3   144  CYS144      0.1677
     72  C         23.7700   98.6720   65.9420 C.2   144  CYS144      0.2270
     73  O         22.7930   99.2530   65.4690 O.2   144  CYS144     -0.2867
     74  CB        25.0770   97.6800   64.1030 C.3   144  CYS144      0.0956
     75  SG        25.5210   96.2220   63.1820 S.3   144  CYS144     -0.0801
     76  N         26.1740   98.4630   70.9540 N.3   162  HIS162     -0.1226
     77  CA        26.7350   97.3420   70.2060 C.3   162  HIS162      0.1752
     78  C         27.5430   97.7040   68.9550 C.2   162  HIS162      0.2596
     79  O         27.1430   98.5570   68.1580 O.2   162  HIS162     -0.2718
     80  CB        25.6160   96.3730   69.8410 C.3   162  HIS162      0.0759
     81  CG        26.1060   95.1180   69.2020 C.ar  162  HIS162      0.0818
     82  ND1       26.8720   94.1940   69.8780 N.ar  162  HIS162     -0.2268
     83  CD2       25.9830   94.6550   67.9380 C.ar  162  HIS162      0.1154
     84  CE1       27.2010   93.2150   69.0560 C.ar  162  HIS162      0.1986
     85  NE2       26.6740   93.4710   67.8730 N.ar  162  HIS162     -0.2212
     86  N         28.6760   97.0310   68.7790 N.am  163  HIS163     -0.1961
     87  CA        29.5520   97.2930   67.6420 C.3   163  HIS163      0.1787
     88  C         29.8040   96.1310   66.6930 C.2   163  HIS163      0.2620
     89  O         29.6120   96.2540   65.4830 O.2   163  HIS163     -0.2715
     90  CB        30.9090   97.7920   68.1390 C.3   163  HIS163      0.0785
     91  CG        30.9400   99.2530   68.4380 C.ar  163  HIS163      0.0821
     92  ND1       31.5180  100.1720   67.5880 N.ar  163  HIS163     -0.2267
     93  CD2       30.4410   99.9600   69.4770 C.ar  163  HIS163      0.1154
     94  CE1       31.3730  101.3850   68.0930 C.ar  163  HIS163      0.1986
     95  NE2       30.7210  101.2840   69.2390 N.ar  163  HIS163     -0.2212
     96  N         30.2390   95.0020   67.2370 N.am  164  LEU164     -0.1963
     97  CA        30.5780   93.8680   66.3970 C.3   164  LEU164      0.1728
     98  C         30.4530   92.5240   67.0990 C.2   164  LEU164      0.2616
     99  O         30.1770   92.4370   68.2930 O.2   164  LEU164     -0.2715
    100  CB        32.0180   94.0470   65.9160 C.3   164  LEU164      0.0311
    101  CG        32.9820   93.9820   67.1100 C.3   164  LEU164      0.0022
    102  CD1       33.5550   92.5640   67.2240 C.3   164  LEU164      0.0001
    103  CD2       34.1050   95.0030   66.9470 C.3   164  LEU164      0.0001
    104  N         30.6810   91.4720   66.3290 N.am  165  GLU165     -0.1963
    105  CA        30.6290   90.1140   66.8340 C.3   165  GLU165      0.1733
    106  C         31.9900   89.4780   66.5770 C.2   165  GLU165      0.2616
    107  O         32.5160   89.5650   65.4670 O.2   165  GLU165     -0.2715
    108  CB        29.5420   89.3360   66.1010 C.3   165  GLU165      0.0429
    109  CG        29.3920   87.8960   66.5560 C.3   165  GLU165      0.1163
    110  CD        28.2880   87.1690   65.8120 C.2   165  GLU165      0.3649
    111  OE1       27.1320   87.6410   65.8530 O.co2 165  GLU165     -0.2457
    112  OE2       28.5790   86.1280   65.1860 O.co2 165  GLU165     -0.2457
    113  N         32.5760   88.8600   67.5980 N.am  166  LEU166     -0.1963
    114  CA        33.8700   88.2000   67.4290 C.3   166  LEU166      0.1728
    115  C         33.6600   86.9150   66.6320 C.2   166  LEU166      0.2617
    116  O         32.5670   86.3490   66.6400 O.2   166  LEU166     -0.2715
    117  CB        34.4830   87.8590   68.7850 C.3   166  LEU166      0.0311
    118  CG        34.9130   89.0310   69.6680 C.3   166  LEU166      0.0022
    119  CD1       35.5190   88.5130   70.9750 C.3   166  LEU166      0.0001
    120  CD2       35.9210   89.8890   68.9050 C.3   166  LEU166      0.0001
    121  N         34.6990   86.4600   65.9400 N.am  167  GLY167     -0.1940
    122  CA        34.5870   85.2360   65.1640 C.3   167  GLY167      0.2014
    123  C         34.0130   84.0890   65.9800 C.2   167  GLY167      0.2638
    124  O         33.4220   83.1600   65.4280 O.2   167  GLY167     -0.2714
    125  N         34.1710   84.1570   67.2990 N.am  168  ASN168     -0.1972
    126  CA        33.6610   83.1110   68.1810 C.3   168  ASN168      0.1688
    127  C         32.2070   83.3470   68.5880 C.2   168  ASN168      0.2292
    128  O         31.6960   82.6830   69.4840 O.2   168  ASN168     -0.2864
    129  CB        34.5340   83.0100   69.4360 C.3   168  ASN168      0.1181
    130  CG        34.1710   84.1060   70.4170 C.2   168  ASN168      0.2629
    131  OD1       33.8360   85.2250   70.0200 O.2   168  ASN168     -0.2716
    132  ND2       34.2450   83.7930   71.7080 N.am  168  ASN168     -0.0877
    133  N         29.7600   88.9660   71.5590 N.3   171  HIS171     -0.1241
    134  CA        29.4540   90.3430   71.1750 C.3   171  HIS171      0.1621
    135  C         30.2490   91.4410   71.8610 C.2   171  HIS171      0.2264
    136  O         30.3940   91.4640   73.0840 O.2   171  HIS171     -0.2867
    137  CB        27.9610   90.5880   71.3510 C.3   171  HIS171      0.0745
    138  CG        27.1190   89.7030   70.4910 C.ar  171  HIS171      0.0817
    139  ND1       26.1460   88.8720   71.0030 N.ar  171  HIS171     -0.2268
    140  CD2       27.1280   89.4920   69.1530 C.ar  171  HIS171      0.1154
    141  CE1       25.5920   88.1880   70.0180 C.ar  171  HIS171      0.1986
    142  NE2       26.1700   88.5460   68.8850 N.ar  171  HIS171     -0.2212
    143  N         37.4180   98.1580   66.4200 N.3   186  ASP186     -0.1225
    144  CA        36.2990   98.0540   65.4930 C.3   186  ASP186      0.1805
    145  C         36.8060   97.8420   64.0750 C.2   186  ASP186      0.2598
    146  O         36.6730   98.7020   63.2110 O.2   186  ASP186     -0.2718
    147  CB        35.3980   99.2970   65.5770 C.3   186  ASP186      0.1424
    148  CG        36.1540  100.6110   65.4480 C.2   186  ASP186      0.3668
    149  OD1       35.4840  101.6600   65.3480 O.co2 186  ASP186     -0.2456
    150  OD2       37.4040  100.6110   65.4580 O.co2 186  ASP186     -0.2456
    151  N         37.3950   96.6700   63.8660 N.am  187  GLN187     -0.1966
    152  CA        37.9630   96.2630   62.5880 C.3   187  GLN187      0.1718
    153  C         37.5560   94.8180   62.3310 C.2   187  GLN187      0.2458
    154  O         37.3250   94.0580   63.2650 O.2   187  GLN187     -0.2730
    155  CB        39.4890   96.3320   62.6440 C.3   187  GLN187      0.0407
    156  CG        40.0700   97.7260   62.8100 C.3   187  GLN187      0.0908
    157  CD        39.9810   98.5580   61.5400 C.2   187  GLN187      0.2608
    158  OE1       39.6900   98.0390   60.4530 O.2   187  GLN187     -0.2717
    159  NE2       40.2450   99.8550   61.6670 N.am  187  GLN187     -0.0878
    160  N         37.4590   94.4200   61.0550 N.am  188  PRO188     -0.2716
    161  CA        37.0810   93.0430   60.7200 C.3   188  PRO188      0.1536
    162  C         38.2990   92.1200   60.8350 C.2   188  PRO188      0.2599
    163  O         38.4870   91.2290   60.0180 O.2   188  PRO188     -0.2715
    164  CB        36.5950   93.1770   59.2870 C.3   188  PRO188      0.0310
    165  CG        37.5590   94.2060   58.7370 C.3   188  PRO188      0.0237
    166  CD        37.5810   95.2460   59.8390 C.3   188  PRO188      0.0939
    167  N         39.1240   92.3540   61.8500 N.am  189  SER189     -0.1936
    168  CA        40.3360   91.5720   62.0690 C.3   189  SER189      0.2055
    169  C         40.0800   90.3170   62.8990 C.2   189  SER189      0.2643
    170  O         38.9340   89.9800   63.1900 O.2   189  SER189     -0.2714
    171  CB        41.3890   92.4420   62.7640 C.3   189  SER189      0.2130
    172  OG        40.9120   92.9230   64.0120 O.3   189  SER189     -0.2179
    173  N         41.1510   89.6230   63.2760 N.am  190  MET190     -0.1962
    174  CA        41.0160   88.4080   64.0730 C.3   190  MET190      0.1736
    175  C         41.4100   88.6030   65.5290 C.2   190  MET190      0.2616
    176  O         42.5560   88.3750   65.9210 O.2   190  MET190     -0.2715
    177  CB        41.8320   87.2670   63.4650 C.3   190  MET190      0.0427
    178  CG        41.2930   86.7780   62.1370 C.3   190  MET190      0.0599
    179  SD        41.9350   85.1570   61.7250 S.3   190  MET190     -0.1393
    180  CE        43.6400   85.5760   61.2730 C.3   190  MET190      0.0692
    181  N         40.4330   89.0280   66.3210 N.am  191  GLN191     -0.1963
    182  CA        40.6100   89.2690   67.7410 C.3   191  GLN191      0.1733
    183  C         40.0270   88.0680   68.4770 C.2   191  GLN191      0.2616
    184  O         38.9890   87.5350   68.0820 O.2   191  GLN191     -0.2715
    185  CB        39.8610   90.5420   68.1450 C.3   191  GLN191      0.0408
    186  CG        40.0910   91.7160   67.2030 C.3   191  GLN191      0.0908
    187  CD        39.2460   92.9250   67.5530 C.2   191  GLN191      0.2608
    188  OE1       39.4540   93.5640   68.5810 O.2   191  GLN191     -0.2717
    189  NE2       38.2800   93.2410   66.6960 N.am  191  GLN191     -0.0878
    190  N         40.7030   87.6370   69.5360 N.am  192  LEU192     -0.1977
    191  CA        40.2390   86.5000   70.3210 C.3   192  LEU192      0.1596
    192  C         39.6960   87.0070   71.6480 C.2   192  LEU192      0.2287
    193  O         40.2310   87.9530   72.2310 O.2   192  LEU192     -0.2864
    194  CB        41.3890   85.5230   70.5830 C.3   192  LEU192      0.0297
    195  CG        42.1140   84.8880   69.3950 C.3   192  LEU192      0.0022
    196  CD1       43.1700   83.9190   69.9210 C.3   192  LEU192      0.0001
    197  CD2       41.1230   84.1520   68.4990 C.3   192  LEU192      0.0001
@<TRIPOS>BOND
     1    19    20    1
     2    20    21    1
     3    20    23    1
     4    21    22    2
     5    23    24    1
     6    23    25    1
     7    27    26    1
     8    27    28    1
     9    27    30    1
    10    31    30    1
    11    31    33    1
    12    32    30    1
    13    28    29    2
    14   165   164    1
    15   165   166    1
    16    12    11    2
    17   164   161    1
    18    69    66    1
    19    34    35    1
    20   166   160    1
    21    37    36    2
    22    36    35    1
    23   163   162    2
    24    35    38    1
    25    11    10    1
    26   158   157    2
    27    68    67    2
    28   161   162    1
    29   161   160    1
    30     1     2    1
    31   162   167   am
    32    66    67    1
    33    66    65    1
    34   160   153   am
    35   180   179    1
    36    10    13    1
    37    10     9    1
    38    41    43   ar
    39    41    39   ar
    40   157   159   am
    41   157   156    1
    42    43    44   ar
    43    38    39    1
    44    16    14   ar
    45    16    18   ar
    46    13    14    1
    47   179   178    1
    48    65    59   am
    49    39    40   ar
    50   167   168    1
    51    44    45    1
    52    44    42   ar
    53   168   171    1
    54   168   169    1
    55     2     5    1
    56     2     3    1
    57     6     8    1
    58     6     5    1
    59     6     7    1
    60   178   177    1
    61    40    42   ar
    62    14    15   ar
    63   153   152    1
    64   153   154    2
    65    18    17   ar
    66   152   155    1
    67   152   151    1
    68     4     3    2
    69   155   156    1
    70   171   172    1
    71   169   170    2
    72   169   173   am
    73    59    60    2
    74    59    58    1
    75    64    62    1
    76    75    74    1
    77   146   145    2
    78   173   174    1
    79    61    62    1
    80    61    58    1
    81    61    63    1
    82   177   174    1
    83    15    17   ar
    84    58    57    1
    85   151   145   am
    86   174   175    1
    87   145   144    1
    88    74    71    1
    89    70    71    1
    90   122   121    1
    91   122   123    1
    92   112   110   ar
    93    57    48   am
    94    71    72    1
    95   149   148   ar
    96   124   123    2
    97   148   150   ar
    98   148   147    1
    99   107   106    2
   100    73    72    2
   101    89    88    2
   102   144   147    1
   103   144   143    1
   104   175   176    2
   105   175   181   am
   106    49    48    2
   107   110   111   ar
   108   110   109    1
   109   100    97    1
   110   100   101    1
   111   121   115   am
   112   123   125   am
   113    48    47    1
   114   108   109    1
   115   108   105    1
   116   181   182    1
   117   104   105    1
   118   104    98   am
   119    97    98    1
   120    97    96    1
   121   106   105    1
   122   106   113   am
   123   115   116    2
   124   115   114    1
   125    88    96   am
   126    88    87    1
   127   189   187   am
   128   103   101    1
   129    98    99    2
   130   101   102    1
   131   186   187    1
   132   186   185    1
   133   125   126    1
   134   114   113    1
   135   114   117    1
   136    47    50    1
   137    47    46    1
   138   187   188    2
   139    92    94   ar
   140    92    91   ar
   141    87    90    1
   142    87    86    1
   143   182   185    1
   144   182   183    1
   145    50    51    1
   146    85    83   ar
   147    85    84   ar
   148    83    81   ar
   149   184   183    2
   150    94    95   ar
   151    90    91    1
   152    79    78    2
   153   126   127    1
   154   126   129    1
   155    91    93   ar
   156   183   190   am
   157   197   195    1
   158   127   128    2
   159    86    78   am
   160   117   118    1
   161   142   140   ar
   162   142   141   ar
   163   120   118    1
   164    78    77    1
   165    84    82   ar
   166   140   138   ar
   167    81    80    1
   168    81    82   ar
   169    51    53   ar
   170    51    52   ar
   171    95    93   ar
   172   195   196    1
   173   195   194    1
   174   129   130    1
   175    53    55   ar
   176   190   191    1
   177   118   119    1
   178    80    77    1
   179   141   139   ar
   180   131   130    2
   181    77    76    1
   182    52    54   ar
   183   191   194    1
   184   191   192    1
   185   130   132   am
   186   138   139   ar
   187   138   137    1
   188    55    56   ar
   189   134   137    1
   190   134   133    1
   191   134   135    1
   192    54    56   ar
   193   192   193    2
   194   135   136    2
