@<TRIPOS>MOLECULE
tmp/1p9uD00.pdb
 94 91 0 0 0
SMALL
GASTEIGER

@<TRIPOS>ATOM
      1  N         78.1040  144.5180   74.8810 N.3    41  HIS41      -0.1241
      2  CA        77.4490  144.7080   76.1690 C.3    41  HIS41       0.1621
      3  C         77.4990  143.4850   77.0700 C.2    41  HIS41       0.2264
      4  O         77.0090  143.5220   78.1980 O.2    41  HIS41      -0.2867
      5  CB        75.9970  145.1820   75.9950 C.3    41  HIS41       0.0745
      6  CG        75.0640  144.1510   75.4390 C.ar   41  HIS41       0.0817
      7  ND1       74.5520  144.2240   74.1620 N.ar   41  HIS41      -0.2268
      8  CD2       74.4910  143.0660   76.0120 C.ar   41  HIS41       0.1154
      9  CE1       73.6990  143.2330   73.9730 C.ar   41  HIS41       0.1986
     10  NE2       73.6430  142.5160   75.0800 N.ar   41  HIS41      -0.2212
     11  N         73.2930  146.0260   83.0230 N.3    47  THR47      -0.1218
     12  CA        72.6260  146.4180   81.7820 C.3    47  THR47       0.1862
     13  C         71.2930  147.1390   81.9680 C.2    47  THR47       0.2287
     14  O         70.6190  147.4610   80.9880 O.2    47  THR47      -0.2866
     15  CB        72.3860  145.1980   80.8620 C.3    47  THR47       0.1770
     16  OG1       71.6440  144.1950   81.5700 O.3    47  THR47      -0.2211
     17  CG2       73.7160  144.6200   80.3880 C.3    47  THR47       0.0375
     18  N         75.7790  152.3210   80.6520 N.3    51  ILE51      -0.1245
     19  CA        77.0430  151.5910   80.6440 C.3    51  ILE51       0.1561
     20  C         78.2140  152.4460   80.1840 C.2    51  ILE51       0.2260
     21  O         78.1320  153.1220   79.1530 O.2    51  ILE51      -0.2867
     22  CB        76.9900  150.3720   79.6910 C.3    51  ILE51       0.0252
     23  CG1       75.7420  149.5280   79.9620 C.3    51  ILE51       0.0019
     24  CG2       78.2670  149.5500   79.8300 C.3    51  ILE51       0.0019
     25  CD1       75.6460  148.9940   81.3780 C.3    51  ILE51       0.0001
     26  N         81.4470  151.9870   78.6590 N.3    53  TYR53      -0.1241
     27  CA        82.2510  150.9700   77.9890 C.3    53  TYR53       0.1605
     28  C         83.7600  151.1030   78.1680 C.2    53  TYR53       0.2264
     29  O         84.4700  150.1050   78.2860 O.2    53  TYR53      -0.2867
     30  CB        81.8860  150.9170   76.5000 C.3    53  TYR53       0.0534
     31  CG        80.5590  150.2250   76.2460 C.ar   53  TYR53      -0.0201
     32  CD1       79.4360  150.9430   75.8270 C.ar   53  TYR53      -0.0009
     33  CD2       80.4210  148.8520   76.4530 C.ar   53  TYR53      -0.0009
     34  CE1       78.2080  150.3070   75.6240 C.ar   53  TYR53       0.0417
     35  CE2       79.2010  148.2040   76.2510 C.ar   53  TYR53       0.0417
     36  CZ        78.1000  148.9360   75.8380 C.ar   53  TYR53       0.1957
     37  OH        76.8950  148.2950   75.6500 O.3    53  TYR53      -0.2866
     38  N         70.6180  137.5740   72.4060 N.3   144  CYS144     -0.1235
     39  CA        71.5060  138.6560   72.0000 C.3   144  CYS144      0.1677
     40  C         72.6830  137.9710   71.3230 C.2   144  CYS144      0.2270
     41  O         73.1480  136.9200   71.7790 O.2   144  CYS144     -0.2867
     42  CB        72.0210  139.4360   73.2140 C.3   144  CYS144      0.0956
     43  SG        70.7660  139.9220   74.4190 S.3   144  CYS144     -0.0801
     44  N         71.5870  143.0970   68.9590 N.3   163  HIS163     -0.1226
     45  CA        72.0550  143.7760   70.1640 C.3   163  HIS163      0.1752
     46  C         70.9650  144.0690   71.1990 C.2   163  HIS163      0.2596
     47  O         71.1500  143.7830   72.3840 O.2   163  HIS163     -0.2718
     48  CB        72.7670  145.0820   69.7940 C.3   163  HIS163      0.0759
     49  CG        74.1890  144.8970   69.3500 C.ar  163  HIS163      0.0818
     50  ND1       75.2650  145.2100   70.1520 N.ar  163  HIS163     -0.2268
     51  CD2       74.7090  144.4360   68.1880 C.ar  163  HIS163      0.1154
     52  CE1       76.3870  144.9540   69.5010 C.ar  163  HIS163      0.1986
     53  NE2       76.0770  144.4840   68.3070 N.ar  163  HIS163     -0.2212
     54  N         69.8400  144.6450   70.7720 N.am  164  LEU164     -0.1966
     55  CA        68.7820  144.9660   71.7260 C.3   164  LEU164      0.1728
     56  C         67.4030  145.2680   71.1490 C.2   164  LEU164      0.2616
     57  O         67.2080  145.3200   69.9370 O.2   164  LEU164     -0.2715
     58  CB        69.2180  146.1310   72.6260 C.3   164  LEU164      0.0311
     59  CG        69.4830  147.5700   72.1400 C.3   164  LEU164      0.0022
     60  CD1       70.7670  147.6280   71.3360 C.3   164  LEU164      0.0001
     61  CD2       68.2970  148.1010   71.3360 C.3   164  LEU164      0.0001
     62  N         66.4440  145.4650   72.0460 N.am  165  GLU165     -0.1977
     63  CA        65.0750  145.7620   71.6600 C.3   165  GLU165      0.1602
     64  C         64.6440  147.1160   72.2040 C.2   165  GLU165      0.2287
     65  O         64.8010  147.3920   73.3930 O.2   165  GLU165     -0.2864
     66  CB        64.1280  144.6780   72.1780 C.3   165  GLU165      0.0415
     67  CG        62.6540  145.0030   71.9490 C.3   165  GLU165      0.1163
     68  CD        61.7280  143.9110   72.4510 C.2   165  GLU165      0.3649
     69  OE1       61.7150  142.8090   71.8550 O.co2 165  GLU165     -0.2457
     70  OE2       61.0150  144.1540   73.4500 O.co2 165  GLU165     -0.2457
     71  N         74.0700  151.3470   71.8060 N.3   186  ASP186     -0.1225
     72  CA        73.9320  150.1100   72.5580 C.3   186  ASP186      0.1805
     73  C         73.9200  150.4030   74.0510 C.2   186  ASP186      0.2598
     74  O         74.8410  150.0440   74.7900 O.2   186  ASP186     -0.2718
     75  CB        75.0460  149.1100   72.2110 C.3   186  ASP186      0.1424
     76  CG        76.4440  149.6410   72.4690 C.2   186  ASP186      0.3668
     77  OD1       77.3720  148.8050   72.5540 O.co2 186  ASP186     -0.2456
     78  OD2       76.6220  150.8750   72.5750 O.co2 186  ASP186     -0.2456
     79  N         72.8480  151.0680   74.4710 N.am  187  GLN187     -0.1966
     80  CA        72.6170  151.4480   75.8560 C.3   187  GLN187      0.1718
     81  C         71.1660  151.1180   76.1630 C.2   187  GLN187      0.2458
     82  O         70.3410  151.0240   75.2550 O.2   187  GLN187     -0.2730
     83  CB        72.8010  152.9540   76.0420 C.3   187  GLN187      0.0407
     84  CG        74.2060  153.4870   75.8590 C.3   187  GLN187      0.0908
     85  CD        75.1040  153.1420   77.0260 C.2   187  GLN187      0.2608
     86  OE1       74.6300  152.9030   78.1380 O.2   187  GLN187     -0.2717
     87  NE2       76.4030  153.1310   76.7860 N.am  187  GLN187     -0.0878
     88  N         70.8410  150.9120   77.4450 N.am  188  PRO188     -0.2727
     89  CA        69.4660  150.6040   77.8540 C.3   188  PRO188      0.1402
     90  C         68.6540  151.9070   77.9810 C.2   188  PRO188      0.2269
     91  O         67.9630  152.1380   78.9840 O.2   188  PRO188     -0.2865
     92  CB        69.6600  149.9040   79.1990 C.3   188  PRO188      0.0296
     93  CG        70.8830  150.5920   79.7500 C.3   188  PRO188      0.0237
     94  CD        71.7890  150.6280   78.5390 C.3   188  PRO188      0.0939
@<TRIPOS>BOND
     1    51    53   ar
     2    51    49   ar
     3    53    52   ar
     4    44    45    1
     5    49    48    1
     6    49    50   ar
     7    52    50   ar
     8    48    45    1
     9    57    56    2
    10    45    46    1
    11    54    46   am
    12    54    55    1
    13    56    55    1
    14    56    62   am
    15    46    47    2
    16    40    41    2
    17    40    39    1
    18    61    59    1
    19    60    59    1
    20    63    62    1
    21    63    66    1
    22    63    64    1
    23    55    58    1
    24    71    72    1
    25    69    68   ar
    26    67    66    1
    27    67    68    1
    28    39    38    1
    29    39    42    1
    30    59    58    1
    31    64    65    2
    32    75    76    1
    33    75    72    1
    34    68    70   ar
    35    76    77   ar
    36    76    78   ar
    37    72    73    1
    38    42    43    1
    39     9     7   ar
    40     9    10   ar
    41    73    79   am
    42    73    74    2
    43     7     6   ar
    44    79    80    1
    45     1     2    1
    46    10     8   ar
    47    82    81    2
    48     6     5    1
    49     6     8   ar
    50    34    32   ar
    51    34    36   ar
    52    37    36    1
    53    32    31   ar
    54    36    35   ar
    55    80    83    1
    56    80    81    1
    57    84    83    1
    58    84    85    1
    59     5     2    1
    60    81    88   am
    61     2     3    1
    62    31    33   ar
    63    31    30    1
    64    35    33   ar
    65    30    27    1
    66    87    85   am
    67    85    86    2
    68     3     4    2
    69    88    89    1
    70    88    94    1
    71    89    90    1
    72    89    92    1
    73    90    91    2
    74    27    28    1
    75    27    26    1
    76    28    29    2
    77    94    93    1
    78    21    20    2
    79    92    93    1
    80    22    24    1
    81    22    23    1
    82    22    19    1
    83    23    25    1
    84    20    19    1
    85    17    15    1
    86    19    18    1
    87    15    16    1
    88    15    12    1
    89    14    13    2
    90    12    13    1
    91    12    11    1
