@<TRIPOS>MOLECULE
tmp/1pagA00.pdb
 140 138 0 0 0
SMALL
GASTEIGER

@<TRIPOS>ATOM
      1  N         13.9290   17.3420   20.9150 N.3    71  LEU71      -0.1231
      2  CA        13.8700   18.1970   19.7160 C.3    71  LEU71       0.1693
      3  C         13.8470   19.7210   19.9560 C.2    71  LEU71       0.2592
      4  O         13.3320   20.4860   19.1170 O.2    71  LEU71      -0.2718
      5  CB        12.6300   17.8410   18.8770 C.3    71  LEU71       0.0284
      6  CG        12.6140   16.7230   17.7980 C.3    71  LEU71       0.0019
      7  CD1       11.2730   16.8140   17.0190 C.3    71  LEU71       0.0001
      8  CD2       13.7240   16.8600   16.7800 C.3    71  LEU71       0.0001
      9  N         14.3740   20.2120   21.0350 N.am   72  TYR72      -0.1962
     10  CA        14.3460   21.6460   21.2740 C.3    72  TYR72       0.1771
     11  C         15.3370   22.4100   20.4950 C.2    72  TYR72       0.2619
     12  O         16.4790   22.0070   20.3750 O.2    72  TYR72      -0.2715
     13  CB        14.5390   22.0010   22.7120 C.3    72  TYR72       0.0574
     14  CG        13.2860   21.9540   23.6110 C.ar   72  TYR72      -0.0198
     15  CD1       12.2980   20.9670   23.4920 C.ar   72  TYR72      -0.0009
     16  CD2       13.1280   22.9820   24.5100 C.ar   72  TYR72      -0.0009
     17  CE1       11.2230   20.9650   24.2710 C.ar   72  TYR72       0.0417
     18  CE2       12.0040   22.9800   25.2890 C.ar   72  TYR72       0.0417
     19  CZ        11.0650   21.9940   25.1700 C.ar   72  TYR72       0.1957
     20  OH         9.9910   22.0370   26.0080 O.3    72  TYR72      -0.2866
     21  N         14.9380   23.5770   19.9560 N.am   73  VAL73      -0.1977
     22  CA        15.7150   24.5200   19.2370 C.3    73  VAL73       0.1596
     23  C         16.5290   25.2800   20.2550 C.2    73  VAL73       0.2287
     24  O         15.9600   25.9950   21.0940 O.2    73  VAL73      -0.2864
     25  CB        14.8640   25.4640   18.3980 C.3    73  VAL73       0.0276
     26  CG1       15.6960   26.4970   17.6790 C.3    73  VAL73       0.0022
     27  CG2       14.1740   24.6600   17.2590 C.3    73  VAL73       0.0022
     28  N         19.9270   30.6090   22.8320 N.3    90  PHE90      -0.1241
     29  CA        18.8000   31.0550   23.6710 C.3    90  PHE90       0.1605
     30  C         19.2580   31.2760   25.1100 C.2    90  PHE90       0.2264
     31  O         20.0230   30.5120   25.7090 O.2    90  PHE90      -0.2867
     32  CB        17.6810   29.9790   23.7310 C.3    90  PHE90       0.0534
     33  CG        16.4730   30.2050   22.8320 C.ar   90  PHE90      -0.0203
     34  CD1       15.6900   31.3260   22.8920 C.ar   90  PHE90      -0.0042
     35  CD2       16.1900   29.2210   21.8740 C.ar   90  PHE90      -0.0042
     36  CE1       14.6250   31.4630   21.9930 C.ar   90  PHE90      -0.0003
     37  CE2       15.1210   29.3130   21.0350 C.ar   90  PHE90      -0.0003
     38  CZ        14.3170   30.4790   21.0940 C.ar   90  PHE90      -0.0000
     39  N         13.1980   30.2440   25.3490 N.3   121  SER121     -0.1202
     40  CA        12.4640   29.5740   24.2710 C.3   121  SER121      0.2020
     41  C         10.9860   29.2590   24.5100 C.2   121  SER121      0.2619
     42  O         10.3300   28.7240   23.6710 O.2   121  SER121     -0.2717
     43  CB        13.2180   28.3190   23.9710 C.3   121  SER121      0.2103
     44  OG        13.3810   27.5540   25.1700 O.3   121  SER121     -0.2182
     45  N         10.4870   29.5250   25.7090 N.am  122  ARG122     -0.1965
     46  CA         9.0810   29.1660   25.9490 C.3   122  ARG122      0.1729
     47  C          8.0780   30.0650   25.1700 C.2   122  ARG122      0.2616
     48  O          8.2670   31.2760   25.0500 O.2   122  ARG122     -0.2715
     49  CB         8.8150   29.2520   27.3870 C.3   122  ARG122      0.0348
     50  CG         9.5370   28.2180   28.2860 C.3   122  ARG122      0.0492
     51  CD         8.5820   27.8120   29.4840 C.3   122  ARG122      0.2205
     52  NE         8.0440   29.0210   30.0240 N.pl3 122  ARG122     -0.0865
     53  CZ         6.7190   29.2450   30.2030 C.cat 122  ARG122      0.5346
     54  NH1        5.7610   28.3480   30.0240 N.pl3 122  ARG122      0.1354
     55  NH2        6.4070   30.4990   30.6230 N.pl3 122  ARG122      0.1354
     56  N          7.0160   29.4380   24.6900 N.am  123  TYR123     -0.1960
     57  CA         5.9770   30.1130   23.9110 C.3   123  TYR123      0.1756
     58  C          5.3880   31.3220   24.5700 C.2   123  TYR123      0.2461
     59  O          5.2040   32.3100   23.8510 O.2   123  TYR123     -0.2730
     60  CB         4.8410   29.0820   23.6110 C.3   123  TYR123      0.0574
     61  CG         5.1550   28.0990   22.4130 C.ar  123  TYR123     -0.0198
     62  CD1        5.6940   28.5950   21.2740 C.ar  123  TYR123     -0.0009
     63  CD2        4.8360   26.7540   22.5330 C.ar  123  TYR123     -0.0009
     64  CE1        5.9880   27.7460   20.1960 C.ar  123  TYR123      0.0417
     65  CE2        5.1300   25.9050   21.4540 C.ar  123  TYR123      0.0417
     66  CZ         5.6690   26.4010   20.3150 C.ar  123  TYR123      0.1957
     67  OH         5.9410   25.5970   19.2370 O.3   123  TYR123     -0.2866
     68  N          5.0520   31.4530   25.8890 N.am  124  PRO124     -0.2727
     69  CA         4.5150   32.7070   26.4880 C.3   124  PRO124      0.1402
     70  C          5.4450   33.9180   26.3680 C.2   124  PRO124      0.2269
     71  O          5.0140   35.0840   26.2480 O.2   124  PRO124     -0.2865
     72  CB         4.2970   32.3000   27.9260 C.3   124  PRO124      0.0296
     73  CG         3.9280   30.8650   27.8060 C.3   124  PRO124      0.0237
     74  CD         5.0310   30.4190   26.9070 C.3   124  PRO124      0.0939
     75  N         10.0190   27.1770   15.0420 N.3   171  ILE171     -0.1245
     76  CA         9.8470   26.0530   15.9410 C.3   171  ILE171      0.1561
     77  C          8.5760   25.2470   15.5810 C.2   171  ILE171      0.2260
     78  O          8.6580   23.9920   15.5810 O.2   171  ILE171     -0.2867
     79  CB         9.6550   26.6320   17.4390 C.3   171  ILE171      0.0252
     80  CG1       11.0130   27.2140   17.8580 C.3   171  ILE171      0.0019
     81  CG2        9.1380   25.5540   18.3980 C.3   171  ILE171      0.0019
     82  CD1       11.1080   28.0180   19.1170 C.3   171  ILE171      0.0001
     83  N         10.3590   21.7080   14.5020 N.3   175  SER175     -0.1202
     84  CA        10.2690   20.8080   15.6410 C.3   175  SER175      0.2020
     85  C          8.8790   20.2700   15.8210 C.2   175  SER175      0.2618
     86  O          8.6910   19.0590   15.9410 O.2   175  SER175     -0.2717
     87  CB        10.7060   21.5230   16.9000 C.3   175  SER175      0.2103
     88  OG        12.0170   22.0160   16.8400 O.3   175  SER175     -0.2182
     89  N          7.7870   21.1220   15.8810 N.am  176  GLU176     -0.1979
     90  CA         6.4470   20.5830   16.0610 C.3   176  GLU176      0.1602
     91  C          5.9010   19.7340   14.9820 C.2   176  GLU176      0.2287
     92  O          5.2750   18.7020   15.2220 O.2   176  GLU176     -0.2864
     93  CB         5.4390   21.7030   16.3000 C.3   176  GLU176      0.0415
     94  CG         5.7130   22.5970   17.4990 C.3   176  GLU176      0.1163
     95  CD         5.8080   22.0110   18.8770 C.2   176  GLU176      0.3649
     96  OE1        5.6430   20.8000   19.0570 O.co2 176  GLU176     -0.2457
     97  OE2        6.0810   22.7700   19.7760 O.co2 176  GLU176     -0.2457
     98  N          7.2440   16.2360   15.3410 N.3   179  ARG179     -0.1245
     99  CA         6.6910   15.4710   16.4800 C.3   179  ARG179      0.1563
    100  C          5.3130   14.9780   16.1200 C.2   179  ARG179      0.2260
    101  O          5.0240   13.8120   16.4200 O.2   179  ARG179     -0.2867
    102  CB         6.6160   16.3190   17.7390 C.3   179  ARG179      0.0307
    103  CG         7.9430   16.8110   18.2180 C.3   179  ARG179      0.0489
    104  CD         7.8110   17.5250   19.5360 C.3   179  ARG179      0.2205
    105  NE         7.9350   18.9600   19.5360 N.pl3 179  ARG179     -0.0865
    106  CZ         8.8490   19.6310   20.1960 C.cat 179  ARG179      0.5346
    107  NH1        9.8220   19.0910   20.8550 N.pl3 179  ARG179      0.1354
    108  NH2        8.7710   20.9760   20.1960 N.pl3 179  ARG179      0.1354
    109  N          0.8860   20.6150   20.9150 N.3   205  GLN205     -0.1231
    110  CA         2.1210   21.1970   21.2740 C.3   205  GLN205      0.1698
    111  C          2.3410   21.1490   22.7720 C.2   205  GLN205      0.2592
    112  O          3.2350   20.4750   23.3120 O.2   205  GLN205     -0.2718
    113  CB         2.2040   22.6330   20.7950 C.3   205  GLN205      0.0381
    114  CG         2.1810   22.6820   19.2970 C.3   205  GLN205      0.0905
    115  CD         2.2150   24.0740   18.6370 C.2   205  GLN205      0.2608
    116  OE1        2.5100   24.1660   17.4990 O.2   205  GLN205     -0.2717
    117  NE2        1.9670   25.1930   19.2970 N.am  205  GLN205     -0.0878
    118  N          1.4770   21.8640   23.4920 N.am  206  GLU206     -0.1979
    119  CA         1.5790   21.9050   24.9300 C.3   206  GLU206      0.1602
    120  C          1.3490   20.5580   25.6490 C.2   206  GLU206      0.2287
    121  O          1.8400   20.3760   26.7880 O.2   206  GLU206     -0.2864
    122  CB         0.5630   22.9350   25.4090 C.3   206  GLU206      0.0415
    123  CG         0.8670   24.2820   24.7500 C.3   206  GLU206      0.1163
    124  CD        -0.2910   25.2690   24.6900 C.2   206  GLU206      0.3649
    125  OE1       -1.4250   24.9980   25.2290 O.co2 206  GLU206     -0.2457
    126  OE2       -0.1250   26.3910   24.1510 O.co2 206  GLU206     -0.2457
    127  N          2.5130   17.4230   24.5100 N.3   208  TRP208     -0.1241
    128  CA         3.3800   16.3930   24.0310 C.3   208  TRP208      0.1605
    129  C          4.0840   15.5380   25.1100 C.2   208  TRP208      0.2264
    130  O          4.2210   14.3280   24.9300 O.2   208  TRP208     -0.2867
    131  CB         4.4410   17.0230   23.1320 C.3   208  TRP208      0.0550
    132  CG         5.4670   16.1280   22.4730 C.ar  208  TRP208      0.0003
    133  CD1        5.0780   15.0540   21.6340 C.ar  208  TRP208      0.0946
    134  CD2        6.8530   16.2170   22.5930 C.ar  208  TRP208      0.0152
    135  NE1        6.1920   14.5170   21.2740 N.ar  208  TRP208     -0.2442
    136  CE2        7.2780   15.1430   21.8140 C.ar  208  TRP208      0.0810
    137  CE3        7.7490   17.0220   23.2520 C.ar  208  TRP208      0.0012
    138  CZ2        8.6000   14.8740   21.6940 C.ar  208  TRP208      0.0191
    139  CZ3        9.0930   16.7090   23.1320 C.ar  208  TRP208      0.0001
    140  CH2        9.4960   15.6800   22.3530 C.ar  208  TRP208      0.0015
@<TRIPOS>BOND
     1    83    84    1
     2    91    92    2
     3    91    90    1
     4    75    76    1
     5    98    99    1
     6    77    78    2
     7    77    76    1
     8    84    85    1
     9    84    87    1
    10    85    89   am
    11    85    86    2
    12    89    90    1
    13    76    79    1
    14    90    93    1
    15   100   101    2
    16   100    99    1
    17    93    94    1
    18    99   102    1
    19     8     6    1
    20    88    87    1
    21     7     6    1
    22    27    25    1
    23    79    80    1
    24    79    81    1
    25   116   115    2
    26    94    95    1
    27    26    25    1
    28   102   103    1
    29     6     5    1
    30    80    82    1
    31   103   104    1
    32    25    22    1
    33   115   117   am
    34   115   114    1
    35    95    96   ar
    36    95    97   ar
    37     5     2    1
    38     4     3    2
    39    67    66    1
    40    22    21    1
    41    22    23    1
    42   114   113    1
    43   105   104    1
    44   105   106    2
    45     2     3    1
    46     2     1    1
    47     3     9   am
    48    21    11   am
    49   106   108    1
    50   106   107    1
    51    64    66   ar
    52    64    62   ar
    53    23    24    2
    54    66    65   ar
    55    12    11    2
    56    11    10    1
    57   113   110    1
    58   109   110    1
    59    37    38   ar
    60    37    35   ar
    61     9    10    1
    62    38    36   ar
    63    62    61   ar
    64   110   111    1
    65   135   133   ar
    66   135   136   ar
    67    10    13    1
    68    65    63   ar
    69   133   132   ar
    70   138   136   ar
    71   138   140   ar
    72   136   134   ar
    73    35    33   ar
    74    36    34   ar
    75   140   139   ar
    76    61    63   ar
    77    61    60    1
    78   132   134   ar
    79   132   131    1
    80   134   137   ar
    81    13    14    1
    82   111   112    2
    83   111   118   am
    84    33    34   ar
    85    33    32    1
    86    28    29    1
    87   131   128    1
    88   139   137   ar
    89   118   119    1
    90    15    14   ar
    91    15    17   ar
    92    60    57    1
    93    14    16   ar
    94    29    32    1
    95    29    30    1
    96    42    41    2
    97    59    58    2
    98    57    58    1
    99    57    56    1
   100    43    40    1
   101    43    44    1
   102   128   127    1
   103   128   129    1
   104   126   124   ar
   105    40    41    1
   106    40    39    1
   107    17    19   ar
   108    41    45   am
   109    16    18   ar
   110    58    68   am
   111   124   123    1
   112   124   125   ar
   113    56    47   am
   114   123   122    1
   115   130   129    2
   116   119   122    1
   117   119   120    1
   118    48    47    2
   119    30    31    2
   120    47    46    1
   121    19    18   ar
   122    19    20    1
   123   120   121    2
   124    45    46    1
   125    68    69    1
   126    68    74    1
   127    46    49    1
   128    71    70    2
   129    70    69    1
   130    69    72    1
   131    74    73    1
   132    49    50    1
   133    73    72    1
   134    50    51    1
   135    51    52    1
   136    54    53    1
   137    52    53    2
   138    53    55    1
