@<TRIPOS>MOLECULE
tmp/1pb8A00.pdb
 104 102 0 0 0
SMALL
GASTEIGER

@<TRIPOS>ATOM
      1  N         21.9530   37.3620   34.2510 N.3    82  PHE82      -0.1241
      2  CA        22.7930   38.4490   34.7390 C.3    82  PHE82       0.1605
      3  C         24.2590   38.0910   34.5010 C.2    82  PHE82       0.2264
      4  O         25.0050   38.8790   33.9180 O.2    82  PHE82      -0.2867
      5  CB        22.5440   38.7200   36.2300 C.3    82  PHE82       0.0534
      6  CG        21.2680   39.4610   36.5060 C.ar   82  PHE82      -0.0203
      7  CD1       20.0770   38.7710   36.6890 C.ar   82  PHE82      -0.0042
      8  CD2       21.2610   40.8520   36.5670 C.ar   82  PHE82      -0.0042
      9  CE1       18.8860   39.4570   36.9270 C.ar   82  PHE82      -0.0003
     10  CE2       20.0760   41.5530   36.8050 C.ar   82  PHE82      -0.0003
     11  CZ        18.8860   40.8460   36.9830 C.ar   82  PHE82      -0.0000
     12  N         20.0830   46.4960   36.8800 N.3   114  PRO114     -0.2102
     13  CA        20.2910   46.3310   38.3200 C.3   114  PRO114      0.1504
     14  C         21.3200   45.2110   38.4920 C.2   114  PRO114      0.2576
     15  O         20.9980   44.1010   38.9070 O.2   114  PRO114     -0.2718
     16  CB        18.8970   45.9650   38.8280 C.3   114  PRO114      0.0282
     17  CG        18.2890   45.2280   37.6700 C.3   114  PRO114      0.0208
     18  CD        18.7390   46.0370   36.4760 C.3   114  PRO114      0.0893
     19  N         22.5630   45.5310   38.1390 N.am  115  LEU115     -0.1966
     20  CA        23.6840   44.5980   38.1890 C.3   115  LEU115      0.1728
     21  C         24.4210   44.6810   39.5200 C.2   115  LEU115      0.2616
     22  O         24.9800   45.7220   39.8640 O.2   115  LEU115     -0.2715
     23  CB        24.6550   44.9180   37.0520 C.3   115  LEU115      0.0311
     24  CG        25.8900   44.0350   36.8900 C.3   115  LEU115      0.0022
     25  CD1       25.4940   42.6900   36.3090 C.3   115  LEU115      0.0001
     26  CD2       26.8810   44.7310   35.9760 C.3   115  LEU115      0.0001
     27  N         24.4330   43.5750   40.2470 N.am  116  THR116     -0.1951
     28  CA        25.0950   43.5350   41.5390 C.3   116  THR116      0.1897
     29  C         26.6150   43.5830   41.4560 C.2   116  THR116      0.2313
     30  O         27.2460   42.8570   40.6840 O.2   116  THR116     -0.2863
     31  CB        24.6790   42.2820   42.3190 C.3   116  THR116      0.1794
     32  OG1       23.2780   42.3540   42.6130 O.3   116  THR116     -0.2208
     33  CG2       25.4670   42.1690   43.6270 C.3   116  THR116      0.0378
     34  N         32.9380   39.2920   39.9170 N.3   121  ARG121     -0.1245
     35  CA        32.7610   40.0600   38.6970 C.3   121  ARG121      0.1563
     36  C         33.8020   41.1660   38.5640 C.2   121  ARG121      0.2260
     37  O         34.2700   41.4500   37.4620 O.2   121  ARG121     -0.2867
     38  CB        31.3530   40.6590   38.6580 C.3   121  ARG121      0.0307
     39  CG        30.2580   39.6220   38.4790 C.3   121  ARG121      0.0489
     40  CD        28.8850   40.2390   38.6860 C.3   121  ARG121      0.2205
     41  NE        27.8270   39.2750   38.4150 N.pl3 121  ARG121     -0.0865
     42  CZ        26.5340   39.5110   38.6090 C.cat 121  ARG121      0.5346
     43  NH1       26.1370   40.6850   39.0840 N.pl3 121  ARG121      0.1354
     44  NH2       25.6410   38.5780   38.3100 N.pl3 121  ARG121      0.1354
     45  N         20.0620   41.6620   50.0130 N.3   136  LEU136     -0.1245
     46  CA        19.3110   40.4530   49.7340 C.3   136  LEU136      0.1561
     47  C         18.2490   40.2250   50.7920 C.2   136  LEU136      0.2260
     48  O         18.4540   40.5200   51.9690 O.2   136  LEU136     -0.2867
     49  CB        20.2410   39.2390   49.6930 C.3   136  LEU136      0.0270
     50  CG        21.3250   39.2640   48.6140 C.3   136  LEU136      0.0019
     51  CD1       22.1800   38.0090   48.7090 C.3   136  LEU136      0.0001
     52  CD2       20.6730   39.3650   47.2400 C.3   136  LEU136      0.0001
     53  N         22.9890   33.9870   38.4860 N.3   169  SER169     -0.1202
     54  CA        22.8770   35.3290   39.0520 C.3   169  SER169      0.2020
     55  C         23.8810   35.4630   40.1900 C.2   169  SER169      0.2619
     56  O         24.4900   34.4780   40.6040 O.2   169  SER169     -0.2717
     57  CB        21.4730   35.5570   39.6110 C.3   169  SER169      0.2103
     58  OG        21.2420   34.7120   40.7270 O.3   169  SER169     -0.2182
     59  N         24.0430   36.6740   40.7110 N.am  170  SER170     -0.1937
     60  CA        24.9840   36.8820   41.8070 C.3   170  SER170      0.2055
     61  C         24.5190   36.1750   43.0760 C.2   170  SER170      0.2642
     62  O         25.3320   35.7980   43.9160 O.2   170  SER170     -0.2714
     63  CB        25.1620   38.3770   42.0880 C.3   170  SER170      0.2130
     64  OG        24.0680   38.9030   42.8160 O.3   170  SER170     -0.2179
     65  N         23.2130   35.9980   43.2240 N.am  171  VAL171     -0.1977
     66  CA        22.6870   35.3300   44.4040 C.3   171  VAL171      0.1596
     67  C         23.0940   33.8630   44.3720 C.2   171  VAL171      0.2287
     68  O         23.4520   33.2830   45.3960 O.2   171  VAL171     -0.2864
     69  CB        21.1530   35.4640   44.4720 C.3   171  VAL171      0.0276
     70  CG1       20.6270   34.8070   45.7360 C.3   171  VAL171      0.0022
     71  CG2       20.7690   36.9280   44.4490 C.3   171  VAL171      0.0022
     72  N         16.2470   36.8280   46.7600 N.3   213  TRP213     -0.1227
     73  CA        16.6320   37.7440   45.6840 C.3   213  TRP213      0.1737
     74  C         16.9420   39.1650   46.1690 C.2   213  TRP213      0.2595
     75  O         16.8970   39.4480   47.3700 O.2   213  TRP213     -0.2718
     76  CB        15.4790   37.7740   44.6710 C.3   213  TRP213      0.0564
     77  CG        15.7860   38.3680   43.3210 C.ar  213  TRP213      0.0003
     78  CD1       15.1360   39.4100   42.7170 C.ar  213  TRP213      0.0946
     79  CD2       16.7630   37.9060   42.3820 C.ar  213  TRP213      0.0152
     80  NE1       15.6500   39.6230   41.4590 N.ar  213  TRP213     -0.2442
     81  CE2       16.6470   38.7130   41.2290 C.ar  213  TRP213      0.0810
     82  CE3       17.7240   36.8840   42.4000 C.ar  213  TRP213      0.0012
     83  CZ2       17.4550   38.5320   40.1050 C.ar  213  TRP213      0.0191
     84  CZ3       18.5280   36.7060   41.2800 C.ar  213  TRP213      0.0001
     85  CH2       18.3860   37.5270   40.1480 C.ar  213  TRP213      0.0015
     86  N         17.2540   40.0530   45.2240 N.am  214  ASP214     -0.1974
     87  CA        17.5700   41.4500   45.5250 C.3   214  ASP214      0.1709
     88  C         16.4160   42.1450   46.2340 C.2   214  ASP214      0.2293
     89  O         15.2740   42.0990   45.7700 O.2   214  ASP214     -0.2864
     90  CB        17.8510   42.2540   44.2500 C.3   214  ASP214      0.1436
     91  CG        19.0400   41.7510   43.4810 C.2   214  ASP214      0.3671
     92  OD1       19.9630   41.1840   44.0960 O.co2 214  ASP214     -0.2456
     93  OD2       19.0580   41.9590   42.2510 O.co2 214  ASP214     -0.2456
     94  N         24.1470   48.1880   43.3110 N.3   240  PHE240     -0.1241
     95  CA        24.0020   47.9710   41.8760 C.3   240  PHE240      0.1605
     96  C         24.9320   48.9820   41.2190 C.2   240  PHE240      0.2264
     97  O         24.9940   50.1420   41.6310 O.2   240  PHE240     -0.2867
     98  CB        22.5850   48.2870   41.3960 C.3   240  PHE240      0.0534
     99  CG        21.5370   47.2990   41.8200 C.ar  240  PHE240     -0.0203
    100  CD1       20.2120   47.7060   41.8970 C.ar  240  PHE240     -0.0042
    101  CD2       21.8450   45.9690   42.0960 C.ar  240  PHE240     -0.0042
    102  CE1       19.2020   46.8150   42.2380 C.ar  240  PHE240     -0.0003
    103  CE2       20.8330   45.0600   42.4430 C.ar  240  PHE240     -0.0003
    104  CZ        19.5060   45.4940   42.5110 C.ar  240  PHE240     -0.0000
@<TRIPOS>BOND
     1     4     3    2
     2     1     2    1
     3     3     2    1
     4     2     5    1
     5    26    24    1
     6     5     6    1
     7    25    24    1
     8    18    12    1
     9    18    17    1
    10     6     8   ar
    11     6     7   ar
    12     8    10   ar
    13     7     9   ar
    14    10    11   ar
    15    12    13    1
    16    24    23    1
    17     9    11   ar
    18    23    20    1
    19    37    36    2
    20    17    16    1
    21    19    20    1
    22    19    14   am
    23    20    21    1
    24    44    42    1
    25    13    14    1
    26    13    16    1
    27    41    42    2
    28    41    40    1
    29    39    38    1
    30    39    40    1
    31    53    54    1
    32    14    15    2
    33    36    35    1
    34    42    43    1
    35    38    35    1
    36    35    34    1
    37    54    57    1
    38    54    55    1
    39    21    22    2
    40    21    27   am
    41    57    58    1
    42    83    85   ar
    43    83    81   ar
    44    85    84   ar
    45    55    56    2
    46    55    59   am
    47    27    28    1
    48    30    29    2
    49    59    60    1
    50    96    97    2
    51    96    95    1
    52    81    80   ar
    53    81    79   ar
    54    84    82   ar
    55    98    99    1
    56    98    95    1
    57    29    28    1
    58    80    78   ar
    59    28    31    1
    60    60    63    1
    61    60    61    1
    62    99   100   ar
    63    99   101   ar
    64    95    94    1
    65   100   102   ar
    66    63    64    1
    67   101   103   ar
    68   102   104   ar
    69    93    91   ar
    70    31    32    1
    71    31    33    1
    72    79    82   ar
    73    79    77   ar
    74   103   104   ar
    75    78    77   ar
    76    61    65   am
    77    61    62    2
    78    65    66    1
    79    77    76    1
    80    91    92   ar
    81    91    90    1
    82    90    87    1
    83    67    66    1
    84    67    68    2
    85    66    69    1
    86    71    69    1
    87    69    70    1
    88    76    73    1
    89    86    87    1
    90    86    74   am
    91    87    88    1
    92    73    74    1
    93    73    72    1
    94    89    88    2
    95    74    75    2
    96    52    50    1
    97    50    51    1
    98    50    49    1
    99    49    46    1
   100    46    45    1
   101    46    47    1
   102    47    48    2
