@<TRIPOS>MOLECULE
tmp/1pb9A00.pdb
 96 95 0 0 0
SMALL
GASTEIGER

@<TRIPOS>ATOM
      1  N         21.9300   37.2350   34.2720 N.3    81  PHE81      -0.1241
      2  CA        22.7810   38.3150   34.7560 C.3    81  PHE81       0.1605
      3  C         24.2360   37.9320   34.5080 C.2    81  PHE81       0.2264
      4  O         24.9970   38.7140   33.9350 O.2    81  PHE81      -0.2867
      5  CB        22.5370   38.5870   36.2450 C.3    81  PHE81       0.0534
      6  CG        21.2700   39.3510   36.5190 C.ar   81  PHE81      -0.0203
      7  CD1       20.0580   38.6880   36.6800 C.ar   81  PHE81      -0.0042
      8  CD2       21.2880   40.7420   36.5880 C.ar   81  PHE81      -0.0042
      9  CE1       18.8750   39.4060   36.9010 C.ar   81  PHE81      -0.0003
     10  CE2       20.1160   41.4700   36.8090 C.ar   81  PHE81      -0.0003
     11  CZ        18.9060   40.7970   36.9640 C.ar   81  PHE81      -0.0000
     12  N         20.0910   46.3980   36.8330 N.3   113  PRO113     -0.2102
     13  CA        20.3160   46.2330   38.2720 C.3   113  PRO113      0.1504
     14  C         21.3570   45.1270   38.4440 C.2   113  PRO113      0.2576
     15  O         21.0480   44.0140   38.8760 O.2   113  PRO113     -0.2718
     16  CB        18.9320   45.8520   38.7920 C.3   113  PRO113      0.0282
     17  CG        18.3160   45.1310   37.6340 C.3   113  PRO113      0.0208
     18  CD        18.7260   45.9810   36.4590 C.3   113  PRO113      0.0893
     19  N         22.5940   45.4610   38.0770 N.am  114  LEU114     -0.1966
     20  CA        23.7330   44.5470   38.1180 C.3   114  LEU114      0.1728
     21  C         24.4900   44.6020   39.4450 C.2   114  LEU114      0.2616
     22  O         25.0480   45.6380   39.8050 O.2   114  LEU114     -0.2715
     23  CB        24.6960   44.8960   36.9840 C.3   114  LEU114      0.0311
     24  CG        25.9310   44.0170   36.8010 C.3   114  LEU114      0.0022
     25  CD1       25.5300   42.6910   36.1700 C.3   114  LEU114      0.0001
     26  CD2       26.9310   44.7420   35.9170 C.3   114  LEU114      0.0001
     27  N         24.5210   43.4780   40.1490 N.am  115  THR115     -0.1951
     28  CA        25.2030   43.4030   41.4340 C.3   115  THR115      0.1897
     29  C         26.7200   43.5180   41.3400 C.2   115  THR115      0.2313
     30  O         27.3650   42.8560   40.5270 O.2   115  THR115     -0.2863
     31  CB        24.8500   42.0860   42.1480 C.3   115  THR115      0.1794
     32  OG1       23.4650   42.1060   42.5160 O.3   115  THR115     -0.2208
     33  CG2       25.7050   41.9040   43.4030 C.3   115  THR115      0.0378
     34  N         33.0520   39.2470   40.0050 N.3   120  ARG120     -0.1245
     35  CA        32.8430   39.9770   38.7620 C.3   120  ARG120      0.1563
     36  C         33.8940   41.0710   38.5730 C.2   120  ARG120      0.2260
     37  O         34.3590   41.3060   37.4600 O.2   120  ARG120     -0.2867
     38  CB        31.4400   40.5880   38.7420 C.3   120  ARG120      0.0307
     39  CG        30.3420   39.5490   38.5820 C.3   120  ARG120      0.0489
     40  CD        28.9660   40.1460   38.7900 C.3   120  ARG120      0.2205
     41  NE        27.9280   39.1630   38.5020 N.pl3 120  ARG120     -0.0865
     42  CZ        26.6250   39.4040   38.5890 C.cat 120  ARG120      0.5346
     43  NH1       26.1970   40.6020   38.9660 N.pl3 120  ARG120      0.1354
     44  NH2       25.7540   38.4540   38.2770 N.pl3 120  ARG120      0.1354
     45  N         23.0010   33.7620   38.4360 N.3   168  SER168     -0.1202
     46  CA        22.9180   35.1000   39.0110 C.3   168  SER168      0.2020
     47  C         23.9560   35.1640   40.1230 C.2   168  SER168      0.2619
     48  O         24.4610   34.1320   40.5610 O.2   168  SER168     -0.2717
     49  CB        21.5330   35.3380   39.6160 C.3   168  SER168      0.2103
     50  OG        21.3140   34.4560   40.7030 O.3   168  SER168     -0.2182
     51  N         24.2740   36.3680   40.5820 N.am  169  SER169     -0.1937
     52  CA        25.2490   36.5040   41.6590 C.3   169  SER169      0.2055
     53  C         24.6900   35.9040   42.9460 C.2   169  SER169      0.2642
     54  O         25.4440   35.4500   43.8050 O.2   169  SER169     -0.2714
     55  CB        25.6060   37.9750   41.8830 C.3   169  SER169      0.2130
     56  OG        24.4790   38.7180   42.2960 O.3   169  SER169     -0.2179
     57  N         23.3680   35.8990   43.0790 N.am  170  VAL170     -0.1977
     58  CA        22.7460   35.3430   44.2700 C.3   170  VAL170      0.1596
     59  C         22.9960   33.8400   44.3540 C.2   170  VAL170      0.2287
     60  O         23.2640   33.3090   45.4290 O.2   170  VAL170     -0.2864
     61  CB        21.2270   35.6310   44.2970 C.3   170  VAL170      0.0276
     62  CG1       20.6010   35.0300   45.5480 C.3   170  VAL170      0.0022
     63  CG2       20.9910   37.1310   44.2670 C.3   170  VAL170      0.0022
     64  N         16.1680   36.7430   46.6770 N.3   212  TRP212     -0.1227
     65  CA        16.5720   37.6570   45.6120 C.3   212  TRP212      0.1737
     66  C         16.8910   39.0720   46.1190 C.2   212  TRP212      0.2595
     67  O         16.8510   39.3360   47.3240 O.2   212  TRP212     -0.2718
     68  CB        15.4340   37.7020   44.5850 C.3   212  TRP212      0.0564
     69  CG        15.7780   38.2920   43.2510 C.ar  212  TRP212      0.0003
     70  CD1       15.1330   39.3160   42.6230 C.ar  212  TRP212      0.0946
     71  CD2       16.8180   37.8630   42.3620 C.ar  212  TRP212      0.0152
     72  NE1       15.7050   39.5530   41.3930 N.ar  212  TRP212     -0.2442
     73  CE2       16.7400   38.6760   41.2100 C.ar  212  TRP212      0.0810
     74  CE3       17.8070   36.8710   42.4260 C.ar  212  TRP212      0.0012
     75  CZ2       17.6150   38.5290   40.1250 C.ar  212  TRP212      0.0191
     76  CZ3       18.6760   36.7230   41.3480 C.ar  212  TRP212      0.0001
     77  CH2       18.5720   37.5500   40.2140 C.ar  212  TRP212      0.0015
     78  N         17.2030   39.9730   45.1880 N.am  213  ASP213     -0.1974
     79  CA        17.5350   41.3630   45.4980 C.3   213  ASP213      0.1709
     80  C         16.3820   42.0770   46.1870 C.2   213  ASP213      0.2293
     81  O         15.2420   42.0320   45.7190 O.2   213  ASP213     -0.2864
     82  CB        17.8630   42.1460   44.2210 C.3   213  ASP213      0.1436
     83  CG        19.1770   41.7390   43.5950 C.2   213  ASP213      0.3671
     84  OD1       20.1470   41.4710   44.3400 O.co2 213  ASP213     -0.2456
     85  OD2       19.2390   41.7160   42.3450 O.co2 213  ASP213     -0.2456
     86  N         24.2030   48.0640   43.2740 N.3   239  PHE239     -0.1241
     87  CA        24.0570   47.8570   41.8360 C.3   239  PHE239      0.1605
     88  C         24.9690   48.8790   41.1820 C.2   239  PHE239      0.2264
     89  O         25.0070   50.0350   41.6010 O.2   239  PHE239     -0.2867
     90  CB        22.6300   48.1620   41.3740 C.3   239  PHE239      0.0534
     91  CG        21.5970   47.1590   41.8050 C.ar  239  PHE239     -0.0203
     92  CD1       20.2570   47.5270   41.8360 C.ar  239  PHE239     -0.0042
     93  CD2       21.9380   45.8450   42.1200 C.ar  239  PHE239     -0.0042
     94  CE1       19.2640   46.6120   42.1690 C.ar  239  PHE239     -0.0003
     95  CE2       20.9480   44.9130   42.4570 C.ar  239  PHE239     -0.0003
     96  CZ        19.6050   45.3030   42.4780 C.ar  239  PHE239     -0.0000
@<TRIPOS>BOND
     1     4     3    2
     2     1     2    1
     3     3     2    1
     4     2     5    1
     5    26    24    1
     6    25    24    1
     7     5     6    1
     8    18    12    1
     9    18    17    1
    10     6     8   ar
    11     6     7   ar
    12     8    10   ar
    13     7     9   ar
    14    24    23    1
    15    10    11   ar
    16    12    13    1
    17     9    11   ar
    18    23    20    1
    19    37    36    2
    20    17    16    1
    21    19    20    1
    22    19    14   am
    23    20    21    1
    24    13    14    1
    25    13    16    1
    26    44    42    1
    27    45    46    1
    28    14    15    2
    29    41    42    2
    30    41    40    1
    31    36    35    1
    32    39    38    1
    33    39    40    1
    34    42    43    1
    35    38    35    1
    36    35    34    1
    37    46    49    1
    38    46    47    1
    39    21    22    2
    40    21    27   am
    41    49    50    1
    42    47    48    2
    43    47    51   am
    44    75    77   ar
    45    75    73   ar
    46    27    28    1
    47    77    76   ar
    48    30    29    2
    49    51    52    1
    50    88    89    2
    51    88    87    1
    52    73    72   ar
    53    73    71   ar
    54    29    28    1
    55    76    74   ar
    56    90    91    1
    57    90    87    1
    58    72    70   ar
    59    28    31    1
    60    52    55    1
    61    52    53    1
    62    91    92   ar
    63    91    93   ar
    64    87    86    1
    65    92    94   ar
    66    55    56    1
    67    93    95   ar
    68    31    32    1
    69    31    33    1
    70    94    96   ar
    71    85    83   ar
    72    71    74   ar
    73    71    69   ar
    74    95    96   ar
    75    70    69   ar
    76    53    57   am
    77    53    54    2
    78    57    58    1
    79    69    68    1
    80    83    82    1
    81    83    84   ar
    82    82    79    1
    83    63    61    1
    84    58    61    1
    85    58    59    1
    86    61    62    1
    87    59    60    2
    88    68    65    1
    89    78    79    1
    90    78    66   am
    91    79    80    1
    92    65    66    1
    93    65    64    1
    94    81    80    2
    95    66    67    2
