@<TRIPOS>MOLECULE
tmp/1pbdA01.pdb
 137 132 0 0 0
SMALL
GASTEIGER

@<TRIPOS>ATOM
      1  N         21.5380  100.8330   50.7820 N.3    44  ARG44      -0.1231
      2  CA        21.1210   99.4560   51.0280 C.3    44  ARG44       0.1694
      3  C         19.7810   98.9270   50.4840 C.2    44  ARG44       0.2592
      4  O         19.4620   99.1230   49.3200 O.2    44  ARG44      -0.2718
      5  CB        21.2510   99.1570   52.5230 C.3    44  ARG44       0.0321
      6  CG        22.5840   99.5800   53.0960 C.3    44  ARG44       0.0489
      7  CD        23.0330   98.6070   54.1360 C.3    44  ARG44       0.2205
      8  NE        24.1970   99.0830   54.8610 N.pl3  44  ARG44      -0.0865
      9  CZ        24.5090   98.6750   56.0840 C.cat  44  ARG44       0.5346
     10  NH1       23.7380   97.7870   56.6950 N.pl3  44  ARG44       0.1354
     11  NH2       25.5750   99.1590   56.7010 N.pl3  44  ARG44       0.1354
     12  N         19.0200   98.2500   51.3500 N.am   45  ALA45      -0.1966
     13  CA        17.7410   97.6010   51.0380 C.3    45  ALA45       0.1728
     14  C         16.6540   98.3740   50.3170 C.2    45  ALA45       0.2617
     15  O         16.4880   99.5840   50.4930 O.2    45  ALA45      -0.2715
     16  CB        17.1410   96.9520   52.3200 C.3    45  ALA45       0.0334
     17  N         15.8590   97.6160   49.5690 N.am   46  GLY46      -0.1940
     18  CA        14.7440   98.1770   48.8370 C.3    46  GLY46       0.2014
     19  C         13.4890   97.3150   48.9100 C.2    46  GLY46       0.2638
     20  O         12.3870   97.8440   48.7850 O.2    46  GLY46      -0.2714
     21  N         13.6460   96.0030   49.1310 N.am   47  VAL47      -0.1977
     22  CA        12.5050   95.0730   49.2060 C.3    47  VAL47       0.1596
     23  C         12.2220   94.5850   50.6420 C.2    47  VAL47       0.2287
     24  O         13.1390   94.1550   51.3660 O.2    47  VAL47      -0.2864
     25  CB        12.7100   93.8740   48.2600 C.3    47  VAL47       0.0276
     26  CG1       11.5070   92.9590   48.3000 C.3    47  VAL47       0.0022
     27  CG2       12.9450   94.3680   46.8310 C.3    47  VAL47       0.0022
     28  N         28.6440   93.4090   44.0950 N.3   185  TRP185     -0.1241
     29  CA        27.6040   94.1170   43.3580 C.3   185  TRP185      0.1605
     30  C         27.9640   95.5960   43.2650 C.2   185  TRP185      0.2264
     31  O         28.1940   96.2580   44.2830 O.2   185  TRP185     -0.2867
     32  CB        26.2540   94.0280   44.0800 C.3   185  TRP185      0.0550
     33  CG        25.4410   92.7940   43.8220 C.ar  185  TRP185      0.0003
     34  CD1       25.8850   91.5890   43.3120 C.ar  185  TRP185      0.0946
     35  CD2       24.0440   92.5950   44.1270 C.ar  185  TRP185      0.0152
     36  NE1       24.8570   90.6720   43.3070 N.ar  185  TRP185     -0.2442
     37  CE2       23.7220   91.2650   43.7970 C.ar  185  TRP185      0.0810
     38  CE3       23.0450   93.4380   44.6640 C.ar  185  TRP185      0.0012
     39  CZ2       22.4250   90.7330   43.9760 C.ar  185  TRP185      0.0191
     40  CZ3       21.7540   92.9060   44.8410 C.ar  185  TRP185      0.0001
     41  CH2       21.4610   91.5640   44.5000 C.ar  185  TRP185      0.0015
     42  N         10.6680   94.4410   39.3880 N.3   199  LEU199     -0.1245
     43  CA        12.1060   94.1710   39.3140 C.3   199  LEU199      0.1561
     44  C         12.4640   93.1580   38.2360 C.2   199  LEU199      0.2260
     45  O         11.6550   92.2980   37.8870 O.2   199  LEU199     -0.2867
     46  CB        12.6270   93.6560   40.6630 C.3   199  LEU199      0.0270
     47  CG        13.0350   94.6510   41.7530 C.3   199  LEU199      0.0019
     48  CD1       11.9110   95.6600   42.0540 C.3   199  LEU199      0.0001
     49  CD2       13.4260   93.8740   42.9880 C.3   199  LEU199      0.0001
     50  N         15.5970   90.5480   37.4170 N.3   201  TYR201     -0.1241
     51  CA        16.8340   89.8730   37.8180 C.3   201  TYR201      0.1605
     52  C         17.3170   89.2470   36.5150 C.2   201  TYR201      0.2264
     53  O         16.5580   88.5640   35.8300 O.2   201  TYR201     -0.2867
     54  CB        16.5420   88.7690   38.8360 C.3   201  TYR201      0.0534
     55  CG        16.1880   89.2560   40.2260 C.ar  201  TYR201     -0.0201
     56  CD1       14.9150   89.7310   40.5190 C.ar  201  TYR201     -0.0009
     57  CD2       17.1150   89.1920   41.2580 C.ar  201  TYR201     -0.0009
     58  CE1       14.5810   90.1450   41.8140 C.ar  201  TYR201      0.0417
     59  CE2       16.7900   89.6020   42.5560 C.ar  201  TYR201      0.0417
     60  CZ        15.5230   90.0700   42.8240 C.ar  201  TYR201      0.1957
     61  OH        15.1990   90.4820   44.1010 O.3   201  TYR201     -0.2866
     62  N         20.6250   93.7170   37.8370 N.3   210  LEU210     -0.1245
     63  CA        19.3440   93.7880   38.5320 C.3   210  LEU210      0.1561
     64  C         18.7470   95.1700   38.3370 C.2   210  LEU210      0.2260
     65  O         19.4380   96.1720   38.5120 O.2   210  LEU210     -0.2867
     66  CB        19.5390   93.4870   40.0250 C.3   210  LEU210      0.0270
     67  CG        18.4270   93.7570   41.0450 C.3   210  LEU210      0.0019
     68  CD1       17.1390   93.0970   40.6670 C.3   210  LEU210      0.0001
     69  CD2       18.8720   93.2670   42.4010 C.3   210  LEU210      0.0001
     70  N         16.0690   97.5560   39.7360 N.3   212  SER212     -0.1202
     71  CA        15.1880   97.8540   40.8450 C.3   212  SER212      0.2020
     72  C         14.7620   99.3290   40.8200 C.2   212  SER212      0.2619
     73  O         15.0640  100.0570   39.8680 O.2   212  SER212     -0.2717
     74  CB        15.8520   97.4920   42.1720 C.3   212  SER212      0.2103
     75  OG        14.8630   97.3010   43.1630 O.3   212  SER212     -0.2182
     76  N         14.0880   99.7650   41.8840 N.am  213  GLN213     -0.1965
     77  CA        13.5660  101.1230   41.9840 C.3   213  GLN213      0.1733
     78  C         13.3500  101.5390   43.4420 C.2   213  GLN213      0.2616
     79  O         13.4120  100.7140   44.3480 O.2   213  GLN213     -0.2715
     80  CB        12.2130  101.1640   41.2670 C.3   213  GLN213      0.0408
     81  CG        11.2200  100.1470   41.8610 C.3   213  GLN213      0.0908
     82  CD         9.9140  100.0130   41.0980 C.2   213  GLN213      0.2608
     83  OE1        8.8540  100.3770   41.6050 O.2   213  GLN213     -0.2717
     84  NE2        9.9710   99.4140   39.9170 N.am  213  GLN213     -0.0878
     85  N         13.1110  102.8310   43.6520 N.am  214  ARG214     -0.1977
     86  CA        12.8240  103.3710   44.9800 C.3   214  ARG214      0.1597
     87  C         11.4730  104.1040   44.9440 C.2   214  ARG214      0.2287
     88  O         10.7890  104.2520   45.9700 O.2   214  ARG214     -0.2864
     89  CB        13.9270  104.3170   45.4380 C.3   214  ARG214      0.0334
     90  CG        15.1630  103.6190   45.9810 C.3   214  ARG214      0.0492
     91  CD        14.8630  102.7830   47.2370 C.3   214  ARG214      0.2205
     92  NE        16.0660  102.0830   47.6860 N.pl3 214  ARG214     -0.0865
     93  CZ        16.5780  101.0020   47.0950 C.cat 214  ARG214      0.5346
     94  NH1       15.9590  100.4280   46.0730 N.pl3 214  ARG214      0.1354
     95  NH2       17.6860  100.4540   47.5670 N.pl3 214  ARG214      0.1354
     96  N         17.2930  102.0750   41.0900 N.3   220  ARG220     -0.1245
     97  CA        18.4830  101.5340   41.7230 C.3   220  ARG220      0.1563
     98  C         18.8590  100.3730   40.8330 C.2   220  ARG220      0.2260
     99  O         18.0220   99.5190   40.5510 O.2   220  ARG220     -0.2867
    100  CB        18.1460  101.0980   43.1620 C.3   220  ARG220      0.0307
    101  CG        19.2710  100.4350   43.9420 C.3   220  ARG220      0.0489
    102  CD        20.4540  101.3310   44.1080 C.3   220  ARG220      0.2205
    103  NE        21.3680  100.8880   45.1600 N.pl3 220  ARG220     -0.0865
    104  CZ        22.5280  101.4860   45.4250 C.cat 220  ARG220      0.5346
    105  NH1       22.9070  102.5360   44.7120 N.pl3 220  ARG220      0.1354
    106  NH2       23.3110  101.0490   46.3990 N.pl3 220  ARG220      0.1354
    107  N         22.0830   97.4320   39.5460 N.3   222  TYR222     -0.1241
    108  CA        23.2630   96.6800   39.9880 C.3   222  TYR222      0.1605
    109  C         23.8320   95.8080   38.8840 C.2   222  TYR222      0.2264
    110  O         23.1040   95.3400   38.0170 O.2   222  TYR222     -0.2867
    111  CB        22.9310   95.7050   41.1150 C.3   222  TYR222      0.0534
    112  CG        22.4200   96.2890   42.3910 C.ar  222  TYR222     -0.0201
    113  CD1       23.2930   96.7180   43.3810 C.ar  222  TYR222     -0.0009
    114  CD2       21.0530   96.3290   42.6480 C.ar  222  TYR222     -0.0009
    115  CE1       22.8060   97.1830   44.6060 C.ar  222  TYR222      0.0417
    116  CE2       20.5570   96.7870   43.8590 C.ar  222  TYR222      0.0417
    117  CZ        21.4340   97.2040   44.8350 C.ar  222  TYR222      0.1957
    118  OH        20.9350   97.6500   46.0360 O.3   222  TYR222     -0.2866
    119  N         22.9530   89.7290   49.0910 N.3   293  PRO293     -0.2102
    120  CA        21.8370   90.5950   48.6810 C.3   293  PRO293      0.1504
    121  C         20.7940   90.0090   47.7220 C.2   293  PRO293      0.2576
    122  O         19.6370   90.4280   47.7450 O.2   293  PRO293     -0.2718
    123  CB        22.5420   91.7830   48.0400 C.3   293  PRO293      0.0282
    124  CG        23.8940   91.7980   48.6990 C.3   293  PRO293      0.0208
    125  CD        24.2480   90.3510   48.7560 C.3   293  PRO293      0.0893
    126  N         21.1970   89.0220   46.9170 N.am  294  THR294     -0.1953
    127  CA        20.3400   88.3900   45.9060 C.3   294  THR294      0.1897
    128  C         18.9050   88.0090   46.2740 C.2   294  THR294      0.2313
    129  O         18.0130   88.1540   45.4470 O.2   294  THR294     -0.2863
    130  CB        21.0260   87.1520   45.2800 C.3   294  THR294      0.1794
    131  OG1       22.4400   87.2230   45.5030 O.3   294  THR294     -0.2208
    132  CG2       20.7860   87.1160   43.7790 C.3   294  THR294      0.0378
    133  N         17.1430   89.3480   48.8860 N.3   296  ALA296     -0.1245
    134  CA        16.5500   90.4710   49.6240 C.3   296  ALA296      0.1562
    135  C         16.0940   90.0580   51.0140 C.2   296  ALA296      0.2260
    136  O         15.0110   90.4440   51.4570 O.2   296  ALA296     -0.2867
    137  CB        15.3770   91.0870   48.8400 C.3   296  ALA296      0.0290
@<TRIPOS>BOND
     1    53    52    2
     2    52    51    1
     3    50    51    1
     4    51    54    1
     5    62    63    1
     6    45    44    2
     7   110   109    2
     8    44    43    1
     9    64    65    2
    10    64    63    1
    11    63    66    1
    12    54    55    1
    13   109   108    1
    14    43    42    1
    15    43    46    1
    16   107   108    1
    17    70    71    1
    18    73    72    2
    19    84    82   am
    20   108   111    1
    21    66    67    1
    22    55    56   ar
    23    55    57   ar
    24    56    58   ar
    25    99    98    2
    26    46    47    1
    27    68    67    1
    28    72    71    1
    29    72    76   am
    30    98    97    1
    31    71    74    1
    32    67    69    1
    33    96    97    1
    34    82    83    2
    35    82    81    1
    36   111   112    1
    37    57    59   ar
    38    80    81    1
    39    80    77    1
    40    97   100    1
    41    47    48    1
    42    47    49    1
    43    58    60   ar
    44    76    77    1
    45    77    78    1
    46    74    75    1
    47   112   114   ar
    48   112   113   ar
    49    59    60   ar
    50   114   116   ar
    51    60    61    1
    52   100   101    1
    53    30    29    1
    54    30    31    2
    55    36    34   ar
    56    36    37   ar
    57    34    33   ar
    58    29    32    1
    59    29    28    1
    60   113   115   ar
    61    78    85   am
    62    78    79    2
    63    85    86    1
    64   132   130    1
    65    37    39   ar
    66    37    35   ar
    67    33    32    1
    68    33    35   ar
    69   116   117   ar
    70   101   102    1
    71    39    41   ar
    72   102   103    1
    73    35    38   ar
    74    41    40   ar
    75   115   117   ar
    76    38    40   ar
    77   105   104    1
    78   117   118    1
    79    87    86    1
    80    87    88    2
    81    86    89    1
    82   103   104    2
    83   130   131    1
    84   130   127    1
    85   104   106    1
    86    89    90    1
    87   129   128    2
    88   127   128    1
    89   127   126    1
    90    90    91    1
    91    94    93    1
    92    27    25    1
    93   126   121   am
    94    93    95    1
    95    93    92    2
    96    91    92    1
    97   121   122    2
    98   121   120    1
    99   123   120    1
   100   123   124    1
   101    25    26    1
   102    25    22    1
   103   120   119    1
   104   124   125    1
   105   125   119    1
   106    20    19    2
   107    18    19    1
   108    18    17    1
   109   137   134    1
   110   133   134    1
   111    19    21   am
   112    21    22    1
   113    22    23    1
   114     4     3    2
   115    17    14   am
   116   134   135    1
   117    14    15    2
   118    14    13    1
   119     3     2    1
   120     3    12   am
   121    23    24    2
   122     1     2    1
   123   135   136    2
   124     2     5    1
   125    13    12    1
   126    13    16    1
   127     5     6    1
   128     6     7    1
   129     7     8    1
   130     8     9    2
   131     9    10    1
   132     9    11    1
