@<TRIPOS>MOLECULE
tmp/1pboB00.pdb
 168 159 0 0 0
SMALL
GASTEIGER

@<TRIPOS>ATOM
      1  N         21.7970   39.1410   47.4220 N.3    14  ILE14      -0.1245
      2  CA        22.6260   39.6840   48.4930 C.3    14  ILE14       0.1561
      3  C         22.5470   41.1950   48.3480 C.2    14  ILE14       0.2260
      4  O         22.6540   41.7160   47.2420 O.2    14  ILE14      -0.2867
      5  CB        24.0960   39.2270   48.4780 C.3    14  ILE14       0.0252
      6  CG1       24.2100   37.7630   48.9440 C.3    14  ILE14       0.0019
      7  CG2       24.9020   40.1110   49.4420 C.3    14  ILE14       0.0019
      8  CD1       25.6080   37.2010   48.8210 C.3    14  ILE14       0.0001
      9  N         32.1500   40.1260   49.1890 N.3    28  PHE28      -0.1241
     10  CA        30.9040   39.4860   49.5540 C.3    28  PHE28       0.1605
     11  C         29.9760   39.1000   48.4430 C.2    28  PHE28       0.2264
     12  O         28.7590   38.9720   48.6880 O.2    28  PHE28      -0.2867
     13  CB        30.1630   40.3260   50.5740 C.3    28  PHE28       0.0534
     14  CG        30.7430   40.2180   51.9500 C.ar   28  PHE28      -0.0203
     15  CD1       31.8870   40.9180   52.2870 C.ar   28  PHE28      -0.0042
     16  CD2       30.1800   39.3590   52.8870 C.ar   28  PHE28      -0.0042
     17  CE1       32.4600   40.7560   53.5410 C.ar   28  PHE28      -0.0003
     18  CE2       30.7460   39.2040   54.1120 C.ar   28  PHE28      -0.0003
     19  CZ        31.8870   39.9050   54.4400 C.ar   28  PHE28      -0.0000
     20  N         29.3480   36.3970   46.9690 N.3    30  THR30      -0.1218
     21  CA        29.5230   34.9730   47.1930 C.3    30  THR30       0.1862
     22  C         28.4560   34.0140   46.6650 C.2    30  THR30       0.2287
     23  O         27.2410   34.1400   46.9580 O.2    30  THR30      -0.2866
     24  CB        29.7400   34.7260   48.7030 C.3    30  THR30       0.1770
     25  OG1       28.6620   35.3220   49.4300 O.3    30  THR30      -0.2211
     26  CG2       31.0230   35.3570   49.1710 C.3    30  THR30       0.0375
     27  N         27.0520   30.5740   47.0550 N.3    32  PHE32      -0.1241
     28  CA        27.0320   29.4530   48.0000 C.3    32  PHE32       0.1605
     29  C         27.0670   28.1250   47.2730 C.2    32  PHE32       0.2264
     30  O         26.5690   28.0200   46.1430 O.2    32  PHE32      -0.2867
     31  CB        25.8090   29.5440   48.9360 C.3    32  PHE32       0.0534
     32  CG        26.0080   30.4910   50.1060 C.ar   32  PHE32      -0.0203
     33  CD1       26.9420   31.5490   50.0280 C.ar   32  PHE32      -0.0042
     34  CD2       25.3320   30.2910   51.3140 C.ar   32  PHE32      -0.0042
     35  CE1       27.2110   32.3840   51.1510 C.ar   32  PHE32      -0.0003
     36  CE2       25.6000   31.1480   52.4590 C.ar   32  PHE32      -0.0003
     37  CZ        26.5380   32.1800   52.3700 C.ar   32  PHE32      -0.0000
     38  N         26.0790   24.1510   52.6950 N.3    35  LEU35      -0.1245
     39  CA        26.0330   24.5960   54.0840 C.3    35  LEU35       0.1561
     40  C         26.0230   23.3330   54.9570 C.2    35  LEU35       0.2260
     41  O         25.4150   22.3310   54.5910 O.2    35  LEU35      -0.2867
     42  CB        24.7980   25.4800   54.3900 C.3    35  LEU35       0.0270
     43  CG        24.6370   26.8900   53.7840 C.3    35  LEU35       0.0019
     44  CD1       23.4670   27.5920   54.4520 C.3    35  LEU35       0.0001
     45  CD2       25.8920   27.7150   53.9660 C.3    35  LEU35       0.0001
     46  N         30.5270   27.1170   55.8610 N.3    46  PHE46      -0.1241
     47  CA        30.0640   27.6750   54.5940 C.3    46  PHE46       0.1605
     48  C         31.1170   27.3170   53.5870 C.2    46  PHE46       0.2264
     49  O         32.3220   27.5160   53.8370 O.2    46  PHE46      -0.2867
     50  CB        29.9940   29.2270   54.6180 C.3    46  PHE46       0.0534
     51  CG        29.0050   29.8000   55.6000 C.ar   46  PHE46      -0.0203
     52  CD1       29.2930   29.8450   56.9720 C.ar   46  PHE46      -0.0042
     53  CD2       27.7940   30.2970   55.1660 C.ar   46  PHE46      -0.0042
     54  CE1       28.3760   30.3850   57.8890 C.ar   46  PHE46      -0.0003
     55  CE2       26.8750   30.8300   56.0630 C.ar   46  PHE46      -0.0003
     56  CZ        27.1730   30.8770   57.4430 C.ar   46  PHE46      -0.0000
     57  N         31.7700   28.1700   49.6170 N.3    48  PHE48      -0.1241
     58  CA        31.2930   29.0640   48.5820 C.3    48  PHE48       0.1605
     59  C         32.4250   29.4860   47.7220 C.2    48  PHE48       0.2264
     60  O         33.5770   29.1450   47.9820 O.2    48  PHE48      -0.2867
     61  CB        30.5620   30.2930   49.1640 C.3    48  PHE48       0.0534
     62  CG        31.4040   31.1590   50.0730 C.ar   48  PHE48      -0.0203
     63  CD1       32.1740   32.2090   49.5510 C.ar   48  PHE48      -0.0042
     64  CD2       31.4000   30.9500   51.4560 C.ar   48  PHE48      -0.0042
     65  CE1       32.9240   33.0350   50.3850 C.ar   48  PHE48      -0.0003
     66  CE2       32.1460   31.7670   52.3040 C.ar   48  PHE48      -0.0003
     67  CZ        32.9170   32.8200   51.7690 C.ar   48  PHE48      -0.0000
     68  N         34.4860   28.6860   55.5530 N.3    61  VAL61      -0.1245
     69  CA        34.4780   29.4840   56.7590 C.3    61  VAL61       0.1561
     70  C         33.5960   28.7280   57.7460 C.2    61  VAL61       0.2260
     71  O         32.5540   28.2150   57.3540 O.2    61  VAL61      -0.2867
     72  CB        33.8330   30.9080   56.4910 C.3    61  VAL61       0.0252
     73  CG1       33.7980   31.7570   57.7720 C.3    61  VAL61       0.0019
     74  CG2       34.5950   31.6530   55.3640 C.3    61  VAL61       0.0019
     75  N         32.0410   34.9860   62.7360 N.3    73  ALA73      -0.1245
     76  CA        32.9630   34.2760   61.8770 C.3    73  ALA73       0.1562
     77  C         33.9400   35.3030   61.3730 C.2    73  ALA73       0.2260
     78  O         33.6450   36.4920   61.3880 O.2    73  ALA73      -0.2867
     79  CB        32.2080   33.6380   60.7010 C.3    73  ALA73       0.0290
     80  N         35.9100   36.5260   58.1850 N.3    75  TYR75      -0.1241
     81  CA        35.9440   36.5290   56.7260 C.3    75  TYR75       0.1605
     82  C         35.8780   38.0080   56.3060 C.2    75  TYR75       0.2264
     83  O         34.8880   38.7010   56.5880 O.2    75  TYR75      -0.2867
     84  CB        34.7820   35.7230   56.1170 C.3    75  TYR75       0.0534
     85  CG        34.7760   35.8040   54.6070 C.ar   75  TYR75      -0.0201
     86  CD1       35.8140   35.2560   53.8510 C.ar   75  TYR75      -0.0009
     87  CD2       33.7810   36.5210   53.9360 C.ar   75  TYR75      -0.0009
     88  CE1       35.8580   35.4420   52.4790 C.ar   75  TYR75       0.0417
     89  CE2       33.8100   36.7030   52.5710 C.ar   75  TYR75       0.0417
     90  CZ        34.8500   36.1710   51.8470 C.ar   75  TYR75       0.1957
     91  OH        34.8870   36.3890   50.4870 O.3    75  TYR75      -0.2866
     92  N         32.7480   39.1430   61.4050 N.3    79  ASN79      -0.1240
     93  CA        31.3680   39.1680   60.9850 C.3    79  ASN79       0.1653
     94  C         30.5580   38.6360   62.1340 C.2    79  ASN79       0.2266
     95  O         31.0110   37.7500   62.8610 O.2    79  ASN79      -0.2867
     96  CB        31.1770   38.2630   59.7770 C.3    79  ASN79       0.1155
     97  CG        31.8620   38.7940   58.5430 C.2    79  ASN79       0.2627
     98  OD1       31.2780   39.5940   57.8020 O.2    79  ASN79      -0.2716
     99  ND2       33.1160   38.3890   58.3230 N.am   79  ASN79      -0.0877
    100  N         26.5740   37.5280   62.4430 N.3    81  PHE81      -0.1241
    101  CA        25.3260   37.4830   61.6970 C.3    81  PHE81       0.1605
    102  C         24.1960   36.7750   62.4150 C.2    81  PHE81       0.2264
    103  O         24.4370   35.9440   63.3010 O.2    81  PHE81      -0.2867
    104  CB        25.5310   36.9070   60.2990 C.3    81  PHE81       0.0534
    105  CG        25.8170   35.4460   60.2820 C.ar   81  PHE81      -0.0203
    106  CD1       24.7630   34.5220   60.2560 C.ar   81  PHE81      -0.0042
    107  CD2       27.1280   34.9900   60.2820 C.ar   81  PHE81      -0.0042
    108  CE1       25.0070   33.1610   60.2300 C.ar   81  PHE81      -0.0003
    109  CE2       27.3880   33.6320   60.2510 C.ar   81  PHE81      -0.0003
    110  CZ        26.3180   32.7130   60.2270 C.ar   81  PHE81      -0.0000
    111  N         20.3890   34.6920   61.6870 N.3    83  ILE83      -0.1245
    112  CA        19.4650   34.0600   60.7600 C.3    83  ILE83       0.1561
    113  C         18.1070   34.6560   61.1390 C.2    83  ILE83       0.2260
    114  O         17.7620   34.7410   62.3030 O.2    83  ILE83      -0.2867
    115  CB        19.5050   32.4960   60.8850 C.3    83  ILE83       0.0252
    116  CG1       20.8440   31.9770   60.3320 C.3    83  ILE83       0.0019
    117  CG2       18.3280   31.8240   60.1100 C.3    83  ILE83       0.0019
    118  CD1       21.0530   30.4780   60.5210 C.3    83  ILE83       0.0001
    119  N         16.6940   30.4800   53.6610 N.3    91  LEU91      -0.1245
    120  CA        17.4770   31.0950   54.7020 C.3    91  LEU91       0.1561
    121  C         17.6080   32.5950   54.3630 C.2    91  LEU91       0.2260
    122  O         18.2310   32.9550   53.3540 O.2    91  LEU91      -0.2867
    123  CB        18.8640   30.4470   54.6940 C.3    91  LEU91       0.0270
    124  CG        20.1450   30.7490   55.4880 C.3    91  LEU91       0.0019
    125  CD1       20.2470   32.1800   55.8690 C.3    91  LEU91       0.0001
    126  CD2       20.2290   29.8450   56.7040 C.3    91  LEU91       0.0001
    127  N         19.0590   36.0330   55.9250 N.3    93  ALA93      -0.1231
    128  CA        19.9770   36.4250   56.9740 C.3    93  ALA93       0.1694
    129  C         20.4560   37.8680   56.8770 C.2    93  ALA93       0.2592
    130  O         20.3200   38.5200   55.8360 O.2    93  ALA93      -0.2718
    131  CB        21.1400   35.5060   56.9630 C.3    93  ALA93       0.0304
    132  N         21.0070   38.3650   57.9810 N.am   94  HIS94      -0.1962
    133  CA        21.5470   39.7230   58.0470 C.3    94  HIS94       0.1787
    134  C         22.9290   39.5780   58.6970 C.2    94  HIS94       0.2620
    135  O         23.0520   38.8930   59.6820 O.2    94  HIS94      -0.2715
    136  CB        20.6030   40.5920   58.8740 C.3    94  HIS94       0.0785
    137  CG        21.2300   41.8450   59.3950 C.ar   94  HIS94       0.0821
    138  ND1       20.9560   42.3400   60.6520 N.ar   94  HIS94      -0.2267
    139  CD2       22.1730   42.6600   58.8630 C.ar   94  HIS94       0.1154
    140  CE1       21.7110   43.4020   60.8750 C.ar   94  HIS94       0.1986
    141  NE2       22.4590   43.6160   59.8060 N.ar   94  HIS94      -0.2212
    142  N         23.9520   40.1880   58.1190 N.am   95  ASN95      -0.1972
    143  CA        25.3380   40.0990   58.5820 C.3    95  ASN95       0.1688
    144  C         25.9390   41.4950   58.7540 C.2    95  ASN95       0.2292
    145  O         25.5660   42.4730   58.0270 O.2    95  ASN95      -0.2864
    146  CB        26.1630   39.3680   57.5250 C.3    95  ASN95       0.1181
    147  CG        27.6430   39.2720   57.8580 C.2    95  ASN95       0.2629
    148  OD1       28.4800   39.4700   57.0200 O.2    95  ASN95      -0.2716
    149  ND2       27.9590   38.8760   59.0620 N.am   95  ASN95      -0.0877
    150  N         24.8310   43.5780   55.5580 N.3   107  LEU107     -0.1245
    151  CA        24.4490   42.8760   54.3370 C.3   107  LEU107      0.1561
    152  C         23.2270   42.0750   54.6610 C.2   107  LEU107      0.2260
    153  O         22.9320   41.8510   55.8470 O.2   107  LEU107     -0.2867
    154  CB        25.5810   41.9830   53.8760 C.3   107  LEU107      0.0270
    155  CG        26.8670   42.7610   53.5690 C.3   107  LEU107      0.0019
    156  CD1       27.9640   42.4300   54.5840 C.3   107  LEU107      0.0001
    157  CD2       27.3250   42.4890   52.1030 C.3   107  LEU107      0.0001
    158  N         18.9560   32.7990   50.5490 N.3   111  PHE111     -0.1241
    159  CA        19.6250   31.6330   49.9790 C.3   111  PHE111      0.1605
    160  C         18.5770   30.5400   49.9320 C.2   111  PHE111      0.2264
    161  O         17.6660   30.5580   50.7440 O.2   111  PHE111     -0.2867
    162  CB        20.8110   31.1990   50.8490 C.3   111  PHE111      0.0534
    163  CG        21.8060   32.3140   51.1540 C.ar  111  PHE111     -0.0203
    164  CD1       21.6120   33.1630   52.2390 C.ar  111  PHE111     -0.0042
    165  CD2       22.9400   32.4970   50.3720 C.ar  111  PHE111     -0.0042
    166  CE1       22.5550   34.1880   52.5290 C.ar  111  PHE111     -0.0003
    167  CE2       23.8800   33.5250   50.6620 C.ar  111  PHE111     -0.0003
    168  CZ        23.6790   34.3540   51.7290 C.ar  111  PHE111     -0.0000
@<TRIPOS>BOND
     1    30    29    2
     2    22    23    2
     3    22    21    1
     4    20    21    1
     5    27    28    1
     6    21    24    1
     7     4     3    2
     8    29    28    1
     9     1     2    1
    10    59    60    2
    11    59    58    1
    12    28    31    1
    13     3     2    1
    14    11    12    2
    15    11    10    1
    16     5     2    1
    17     5     6    1
    18     5     7    1
    19    58    61    1
    20    58    57    1
    21    24    26    1
    22    24    25    1
    23     8     6    1
    24    31    32    1
    25    61    62    1
    26     9    10    1
    27    63    62   ar
    28    63    65   ar
    29    10    13    1
    30   160   159    1
    31   160   161    2
    32   159   158    1
    33   159   162    1
    34    33    32   ar
    35    33    35   ar
    36    62    64   ar
    37    32    34   ar
    38   165   167   ar
    39   165   163   ar
    40    65    67   ar
    41    91    90    1
    42    13    14    1
    43   167   168   ar
    44   162   163    1
    45    35    37   ar
    46   163   164   ar
    47    34    36   ar
    48    64    66   ar
    49   168   166   ar
    50    67    66   ar
    51    90    88   ar
    52    90    89   ar
    53    14    15   ar
    54    14    16   ar
    55   157   155    1
    56   164   166   ar
    57    15    17   ar
    58    37    36   ar
    59    88    86   ar
    60    89    87   ar
    61    38    39    1
    62    16    18   ar
    63   122   121    2
    64    17    19   ar
    65   155   154    1
    66   155   156    1
    67    48    49    2
    68    48    47    1
    69   119   120    1
    70    43    45    1
    71    43    42    1
    72    43    44    1
    73    86    85   ar
    74   154   151    1
    75    87    85   ar
    76    39    42    1
    77    39    40    1
    78    18    19   ar
    79   151   152    1
    80   151   150    1
    81   121   120    1
    82    41    40    2
    83    47    50    1
    84    47    46    1
    85    85    84    1
    86    50    51    1
    87   152   153    2
    88   123   120    1
    89   123   124    1
    90    53    51   ar
    91    53    55   ar
    92    74    72    1
    93   124   125    1
    94   124   126    1
    95    68    69    1
    96    51    52   ar
    97   130   129    2
    98   127   128    1
    99    55    56   ar
   100    84    81    1
   101    82    83    2
   102    82    81    1
   103    72    69    1
   104    72    73    1
   105    81    80    1
   106    69    70    1
   107   129   128    1
   108   129   132   am
   109   131   128    1
   110    52    54   ar
   111   148   147    2
   112    71    70    2
   113    56    54   ar
   114   146   147    1
   115   146   143    1
   116    98    97    2
   117   147   149   am
   118   132   133    1
   119   145   144    2
   120   133   134    1
   121   133   136    1
   122   142   143    1
   123   142   134   am
   124    99    97   am
   125    97    96    1
   126   143   144    1
   127   134   135    2
   128   139   137   ar
   129   139   141   ar
   130   136   137    1
   131   137   138   ar
   132    96    93    1
   133   141   140   ar
   134   117   115    1
   135   110   108   ar
   136   110   109   ar
   137   108   106   ar
   138   109   107   ar
   139   106   105   ar
   140   105   107   ar
   141   105   104    1
   142   104   101    1
   143   116   118    1
   144   116   115    1
   145   138   140   ar
   146    79    76    1
   147   112   115    1
   148   112   113    1
   149   112   111    1
   150    93    92    1
   151    93    94    1
   152   113   114    2
   153    77    78    2
   154    77    76    1
   155   101   102    1
   156   101   100    1
   157    76    75    1
   158    94    95    2
   159   102   103    2
