@<TRIPOS>MOLECULE
tmp/1pbyA00.pdb
 214 201 0 0 0
SMALL
GASTEIGER

@<TRIPOS>ATOM
      1  N         42.6400   48.7840    5.4460 N.3     6  VAL6       -0.1231
      2  CA        41.5670   48.5820    6.4120 C.3     6  VAL6        0.1692
      3  C         41.3790   49.8220    7.3020 C.2     6  VAL6        0.2591
      4  O         40.2600   50.1650    7.6730 O.2     6  VAL6       -0.2718
      5  CB        41.8380   47.3550    7.3040 C.3     6  VAL6        0.0266
      6  CG1       40.6920   47.1730    8.2950 C.3     6  VAL6        0.0020
      7  CG2       41.9820   46.1090    6.4390 C.3     6  VAL6        0.0020
      8  N         42.4780   50.4820    7.6420 N.am    7  LEU7       -0.1980
      9  CA        42.4000   51.6820    8.4670 C.3     7  LEU7        0.1596
     10  C         41.5550   52.7560    7.7710 C.2     7  LEU7        0.2287
     11  O         40.6830   53.3690    8.3890 O.2     7  LEU7       -0.2864
     12  CB        43.8080   52.2350    8.7400 C.3     7  LEU7        0.0297
     13  CG        44.5760   51.5900    9.9020 C.3     7  LEU7        0.0022
     14  CD1       46.0050   52.1060    9.9210 C.3     7  LEU7        0.0001
     15  CD2       43.8660   51.9090   11.2160 C.3     7  LEU7        0.0001
     16  N         37.7510   50.9250    6.7660 N.3    10  ALA10      -0.1231
     17  CA        36.8810   50.4310    7.8270 C.3    10  ALA10       0.1694
     18  C         37.0050   51.2330    9.1330 C.2    10  ALA10       0.2592
     19  O         36.0120   51.7210    9.6610 O.2    10  ALA10      -0.2718
     20  CB        37.1680   48.9520    8.0960 C.3    10  ALA10       0.0304
     21  N         38.2270   51.3660    9.6330 N.am   11  CYS11      -0.1970
     22  CA        38.4730   52.0820   10.8830 C.3    11  CYS11       0.1712
     23  C         38.1390   53.5800   10.8190 C.2    11  CYS11       0.2296
     24  O         37.6160   54.1500   11.7810 O.2    11  CYS11      -0.2864
     25  CB        39.9460   51.9080   11.3000 C.3    11  CYS11       0.0983
     26  SG        40.5320   50.1840   11.2950 S.3    11  CYS11      -0.0798
     27  N         35.8360   55.0760    9.6480 N.3    13  ALA13      -0.1231
     28  CA        34.4120   55.3670    9.7690 C.3    13  ALA13       0.1694
     29  C         34.0890   56.0170   11.1260 C.2    13  ALA13       0.2592
     30  O         33.1170   56.7560   11.2530 O.2    13  ALA13      -0.2718
     31  CB        33.6060   54.0920    9.5970 C.3    13  ALA13       0.0304
     32  N         34.9140   55.7340   12.1280 N.am   14  CYS14      -0.1956
     33  CA        34.7080   56.2880   13.4630 C.3    14  CYS14       0.1843
     34  C         36.0000   56.9200   14.0020 C.2    14  CYS14       0.2625
     35  O         35.9660   57.9540   14.6680 O.2    14  CYS14      -0.2714
     36  CB        34.2130   55.1750   14.4280 C.3    14  CYS14       0.0997
     37  SG        32.6460   54.3830   13.9290 S.3    14  CYS14      -0.0797
     38  N         37.1320   56.2970   13.6960 N.am   15  HIS15      -0.1973
     39  CA        38.4240   56.7830   14.1600 C.3    15  HIS15       0.1656
     40  C         39.0120   57.8970   13.2790 C.2    15  HIS15       0.2291
     41  O         39.3800   57.6730   12.1290 O.2    15  HIS15      -0.2864
     42  CB        39.4010   55.6020   14.2720 C.3    15  HIS15       0.0771
     43  CG        39.1560   54.7380   15.4710 C.ar   15  HIS15       0.0820
     44  ND1       39.7860   54.9840   16.6560 N.ar   15  HIS15      -0.2267
     45  CD2       38.2760   53.7220   15.3710 C.ar   15  HIS15       0.1154
     46  CE1       39.2430   53.9900   17.4430 C.ar   15  HIS15       0.1986
     47  NE2       38.3110   53.2010   16.6720 N.ar   15  HIS15      -0.2212
     48  N         42.9700   57.1410   19.2810 N.3    25  ARG25      -0.1231
     49  CA        43.0220   55.8790   20.0270 C.3    25  ARG25       0.1694
     50  C         44.1180   54.9260   19.5000 C.2    25  ARG25       0.2591
     51  O         45.0490   54.5730   20.2180 O.2    25  ARG25      -0.2718
     52  CB        41.6540   55.1370   19.9960 C.3    25  ARG25       0.0321
     53  CG        40.4430   55.9230   20.5150 C.3    25  ARG25       0.0489
     54  CD        40.7190   56.6260   21.8480 C.3    25  ARG25       0.2205
     55  NE        41.2720   55.7400   22.8700 N.pl3  25  ARG25      -0.0865
     56  CZ        40.5720   54.8490   23.5680 C.cat  25  ARG25       0.5346
     57  NH1       39.2690   54.7040   23.3660 N.pl3  25  ARG25       0.1354
     58  NH2       41.1850   54.1160   24.4880 N.pl3  25  ARG25       0.1354
     59  N         43.9870   54.5260   18.2400 N.am   26  ILE26      -0.1980
     60  CA        44.9270   53.6050   17.6080 C.3    26  ILE26       0.1595
     61  C         46.4150   53.9700   17.7840 C.2    26  ILE26       0.2287
     62  O         47.2450   53.1000   18.0480 O.2    26  ILE26      -0.2864
     63  CB        44.5970   53.4620   16.1010 C.3    26  ILE26       0.0276
     64  CG1       43.2090   52.7990   15.9480 C.3    26  ILE26       0.0022
     65  CG2       45.6680   52.6340   15.3950 C.3    26  ILE26       0.0022
     66  CD1       42.6140   52.8870   14.5660 C.3    26  ILE26       0.0001
     67  N         48.3820   53.7620   21.8240 N.3    29  ALA29      -0.1245
     68  CA        48.6000   52.5190   22.5520 C.3    29  ALA29       0.1562
     69  C         49.4910   51.5350   21.7760 C.2    29  ALA29       0.2260
     70  O         49.5330   51.5570   20.5460 O.2    29  ALA29      -0.2867
     71  CB        47.2560   51.8510   22.8540 C.3    29  ALA29       0.0290
     72  N         50.7120   47.2350   22.0600 N.3    31  LYS31      -0.1245
     73  CA        50.4280   45.9690   22.7210 C.3    31  LYS31       0.1561
     74  C         50.8720   44.8050   21.8270 C.2    31  LYS31       0.2260
     75  O         51.3330   45.0120   20.7100 O.2    31  LYS31      -0.2867
     76  CB        48.9160   45.8600   23.0290 C.3    31  LYS31       0.0271
     77  CG        48.0440   45.7580   21.7860 C.3    31  LYS31       0.0035
     78  CD        46.5640   45.9640   22.0830 C.3    31  LYS31       0.0206
     79  CE        46.2610   47.4140   22.4360 C.3    31  LYS31       0.1093
     80  NZ        44.7970   47.6520   22.5020 N.3    31  LYS31      -0.1314
     81  N         46.2020   43.1450   20.1280 N.3    36  TRP36      -0.1241
     82  CA        45.5300   43.7980   19.0170 C.3    36  TRP36       0.1605
     83  C         44.3790   42.9420   18.4630 C.2    36  TRP36       0.2264
     84  O         43.3720   43.4700   18.0060 O.2    36  TRP36      -0.2867
     85  CB        46.5410   44.1520   17.9050 C.3    36  TRP36       0.0550
     86  CG        47.4050   45.3410   18.2460 C.ar   36  TRP36       0.0003
     87  CD1       48.7650   45.3600   18.3540 C.ar   36  TRP36       0.0946
     88  CD2       46.9630   46.6810   18.5160 C.ar   36  TRP36       0.0152
     89  NE1       49.1990   46.6250   18.6740 N.ar   36  TRP36      -0.2442
     90  CE2       48.1140   47.4550   18.7790 C.ar   36  TRP36       0.0810
     91  CE3       45.7050   47.3000   18.5590 C.ar   36  TRP36       0.0012
     92  CZ2       48.0500   48.8240   19.0830 C.ar   36  TRP36       0.0191
     93  CZ3       45.6390   48.6650   18.8610 C.ar   36  TRP36       0.0001
     94  CH2       46.8080   49.4090   19.1180 C.ar   36  TRP36       0.0015
     95  N         41.3480   43.6740   20.6250 N.3    39  THR39      -0.1203
     96  CA        40.7710   44.9860   20.3650 C.3    39  THR39       0.1994
     97  C         39.9470   44.9790   19.0660 C.2    39  THR39       0.2617
     98  O         38.8180   45.4650   19.0330 O.2    39  THR39      -0.2717
     99  CB        41.8540   46.0580   20.2470 C.3    39  THR39       0.1784
    100  OG1       42.6320   46.0800   21.4500 O.3    39  THR39      -0.2211
    101  CG2       41.2160   47.4200   20.0340 C.3    39  THR39       0.0376
    102  N         40.5200   44.4290   18.0000 N.am   40  VAL40      -0.1979
    103  CA        39.8140   44.3720   16.7270 C.3    40  VAL40       0.1595
    104  C         38.5530   43.5070   16.8500 C.2    40  VAL40       0.2287
    105  O         37.5160   43.8250   16.2720 O.2    40  VAL40      -0.2864
    106  CB        40.7240   43.8220   15.6090 C.3    40  VAL40       0.0276
    107  CG1       39.9150   43.5860   14.3330 C.3    40  VAL40       0.0022
    108  CG2       41.8450   44.8170   15.3370 C.3    40  VAL40       0.0022
    109  N         36.7050   43.2040   19.4440 N.3    42  ARG42      -0.1231
    110  CA        35.6800   43.9970   20.1210 C.3    42  ARG42       0.1694
    111  C         35.0320   45.0210   19.1670 C.2    42  ARG42       0.2591
    112  O         33.8400   45.3020   19.2710 O.2    42  ARG42      -0.2718
    113  CB        36.2560   44.7190   21.3650 C.3    42  ARG42       0.0321
    114  CG        35.1590   45.3900   22.2050 C.3    42  ARG42       0.0489
    115  CD        35.6580   45.9050   23.5550 C.3    42  ARG42       0.2205
    116  NE        36.5850   47.0310   23.4310 N.pl3  42  ARG42      -0.0865
    117  CZ        37.8970   46.9440   23.6190 C.cat  42  ARG42       0.5346
    118  NH1       38.4570   45.7810   23.9410 N.pl3  42  ARG42       0.1354
    119  NH2       38.6520   48.0240   23.4930 N.pl3  42  ARG42       0.1354
    120  N         35.8130   45.5710   18.2430 N.am   43  MET43      -0.1979
    121  CA        35.2610   46.5270   17.2880 C.3    43  MET43       0.1605
    122  C         34.1920   45.8050   16.4540 C.2    43  MET43       0.2287
    123  O         33.1120   46.3400   16.2020 O.2    43  MET43      -0.2864
    124  CB        36.3670   47.0760   16.3620 C.3    43  MET43       0.0413
    125  CG        37.4150   47.9090   17.0770 C.3    43  MET43       0.0598
    126  SD        36.7270   49.2920   18.0330 S.3    43  MET43      -0.1393
    127  CE        37.1300   48.7330   19.7170 C.3    43  MET43       0.0692
    128  N         31.2520   44.5080   19.3910 N.3    46  ASN46      -0.1225
    129  CA        30.5240   45.5780   20.0640 C.3    46  ASN46       0.1785
    130  C         30.0530   46.7370   19.1940 C.2    46  ASN46       0.2597
    131  O         29.0100   47.3350   19.4590 O.2    46  ASN46      -0.2718
    132  CB        31.3800   46.1850   21.1990 C.3    46  ASN46       0.1169
    133  CG        31.6910   45.2040   22.3080 C.2    46  ASN46       0.2627
    134  OD1       32.0040   45.6120   23.4310 O.2    46  ASN46      -0.2716
    135  ND2       31.6300   43.9150   22.0050 N.am   46  ASN46      -0.0877
    136  N         30.8200   47.0680   18.1660 N.am   47  HIS47      -0.1975
    137  CA        30.4580   48.2120   17.3510 C.3    47  HIS47       0.1656
    138  C         30.0970   47.9210   15.8980 C.2    47  HIS47       0.2291
    139  O         30.1160   48.8150   15.0510 O.2    47  HIS47      -0.2864
    140  CB        31.5820   49.2450   17.4710 C.3    47  HIS47       0.0771
    141  CG        31.9540   49.5310   18.8920 C.ar   47  HIS47       0.0820
    142  ND1       33.2180   49.3080   19.3940 N.ar   47  HIS47      -0.2267
    143  CD2       31.2010   49.9420   19.9400 C.ar   47  HIS47       0.1154
    144  CE1       33.2260   49.5660   20.6900 C.ar   47  HIS47       0.1986
    145  NE2       32.0140   49.9520   21.0460 N.ar   47  HIS47      -0.2212
    146  N         31.5930   46.5870   13.4380 N.3    49  VAL49      -0.1245
    147  CA        32.5560   46.8360   12.3750 C.3    49  VAL49       0.1561
    148  C         32.6870   45.5740   11.5160 C.2    49  VAL49       0.2260
    149  O         33.2290   44.5660   11.9560 O.2    49  VAL49      -0.2867
    150  CB        33.9360   47.1910   12.9320 C.3    49  VAL49       0.0252
    151  CG1       34.9000   47.4910   11.7890 C.3    49  VAL49       0.0019
    152  CG2       33.8170   48.3770   13.8530 C.3    49  VAL49       0.0019
    153  N         34.1990   43.1380    9.0400 N.3    51  LEU51      -0.1245
    154  CA        35.5320   42.8160    8.5420 C.3    51  LEU51       0.1561
    155  C         35.5610   41.3930    7.9720 C.2    51  LEU51       0.2260
    156  O         35.1050   40.4490    8.6160 O.2    51  LEU51      -0.2867
    157  CB        36.5880   42.9270    9.6650 C.3    51  LEU51       0.0270
    158  CG        36.9160   44.3160   10.2440 C.3    51  LEU51       0.0019
    159  CD1       38.0150   44.1810   11.2870 C.3    51  LEU51       0.0001
    160  CD2       37.3590   45.2530    9.1330 C.3    51  LEU51       0.0001
    161  N         44.6050   43.9520    9.3980 N.3    59  ILE59      -0.1245
    162  CA        44.6940   45.0540   10.3490 C.3    59  ILE59       0.1561
    163  C         45.3880   44.6030   11.6410 C.2    59  ILE59       0.2260
    164  O         46.2200   45.3250   12.1740 O.2    59  ILE59      -0.2867
    165  CB        43.2970   45.6650   10.6590 C.3    59  ILE59       0.0252
    166  CG1       43.4570   46.9110   11.5530 C.3    59  ILE59       0.0019
    167  CG2       42.4050   44.6380   11.3360 C.3    59  ILE59       0.0019
    168  CD1       44.3060   48.0080   10.9430 C.3    59  ILE59       0.0001
    169  N         48.8980   46.3020   12.8900 N.3    63  LEU63      -0.1245
    170  CA        49.0320   46.9010   14.2140 C.3    63  LEU63       0.1561
    171  C         50.1710   46.2380   14.9990 C.2    63  LEU63       0.2260
    172  O         50.9190   46.9080   15.7000 O.2    63  LEU63      -0.2867
    173  CB        47.6980   46.7720   14.9890 C.3    63  LEU63       0.0270
    174  CG        46.4910   47.5140   14.3810 C.3    63  LEU63       0.0019
    175  CD1       45.2040   47.0150   15.0200 C.3    63  LEU63       0.0001
    176  CD2       46.6540   49.0200   14.5790 C.3    63  LEU63       0.0001
    177  N         50.5510   52.9240   27.0080 N.3   114  ARG114     -0.1245
    178  CA        49.6430   53.9350   26.4800 C.3   114  ARG114      0.1563
    179  C         49.9350   55.3350   27.0190 C.2   114  ARG114      0.2260
    180  O         50.6610   55.4960   27.9900 O.2   114  ARG114     -0.2867
    181  CB        48.1800   53.6010   26.8530 C.3   114  ARG114      0.0307
    182  CG        47.7090   52.1850   26.5440 C.3   114  ARG114      0.0489
    183  CD        46.1990   52.1290   26.7220 C.3   114  ARG114      0.2205
    184  NE        45.6380   50.8060   26.4750 N.pl3 114  ARG114     -0.0865
    185  CZ        44.3670   50.5920   26.1510 C.cat 114  ARG114      0.5346
    186  NH1       43.5330   51.6180   26.0250 N.pl3 114  ARG114      0.1354
    187  NH2       43.9250   49.3520   25.9720 N.pl3 114  ARG114      0.1354
    188  N         44.9170   57.9900   27.2120 N.3   118  ASP118     -0.1239
    189  CA        44.3740   56.7230   26.7530 C.3   118  ASP118      0.1674
    190  C         44.1380   55.7410   27.9080 C.2   118  ASP118      0.2266
    191  O         43.1720   54.9830   27.8780 O.2   118  ASP118     -0.2867
    192  CB        45.2620   56.0980   25.6630 C.3   118  ASP118      0.1410
    193  CG        44.4350   55.4210   24.5820 C.2   118  ASP118      0.3668
    194  OD1       44.1970   54.1990   24.6720 O.co2 118  ASP118     -0.2456
    195  OD2       43.9960   56.1250   23.6530 O.co2 118  ASP118     -0.2456
    196  N         40.7050   53.9410   28.7890 N.3   122  LEU122     -0.1245
    197  CA        40.5900   52.5090   29.0320 C.3   122  LEU122      0.1561
    198  C         39.7900   52.2380   30.3180 C.2   122  LEU122      0.2260
    199  O         38.9300   51.3630   30.3460 O.2   122  LEU122     -0.2867
    200  CB        41.9830   51.8660   29.1340 C.3   122  LEU122      0.0270
    201  CG        41.9840   50.3640   29.4890 C.3   122  LEU122      0.0019
    202  CD1       41.2480   49.5510   28.4270 C.3   122  LEU122      0.0001
    203  CD2       43.4000   49.9030   29.6100 C.3   122  LEU122      0.0001
    204  N         36.2810   52.9280   29.7430 N.3   125  PHE125     -0.1241
    205  CA        35.7140   51.8400   28.9480 C.3   125  PHE125      0.1605
    206  C         35.2110   50.7340   29.8920 C.2   125  PHE125      0.2264
    207  O         34.1090   50.2210   29.7270 O.2   125  PHE125     -0.2867
    208  CB        36.7650   51.2280   27.9900 C.3   125  PHE125      0.0534
    209  CG        36.4450   49.8130   27.5790 C.ar  125  PHE125     -0.0203
    210  CD1       35.3750   49.5430   26.7260 C.ar  125  PHE125     -0.0042
    211  CD2       37.1690   48.7470   28.1040 C.ar  125  PHE125     -0.0042
    212  CE1       35.0260   48.2270   26.4070 C.ar  125  PHE125     -0.0003
    213  CE2       36.8290   47.4280   27.7940 C.ar  125  PHE125     -0.0003
    214  CZ        35.7560   47.1690   26.9450 C.ar  125  PHE125     -0.0000
@<TRIPOS>BOND
     1     1     2    1
     2     2     3    1
     3     2     5    1
     4     7     5    1
     5    16    17    1
     6     3     8   am
     7     3     4    2
     8     5     6    1
     9     8     9    1
    10    10    11    2
    11    10     9    1
    12    17    20    1
    13    17    18    1
    14   155   154    1
    15   155   156    2
    16     9    12    1
    17   154   153    1
    18   154   157    1
    19    12    13    1
    20   160   158    1
    21    18    21   am
    22    18    19    2
    23   161   162    1
    24    31    28    1
    25    21    22    1
    26    27    28    1
    27   157   158    1
    28    28    29    1
    29    13    14    1
    30    13    15    1
    31   158   159    1
    32   162   165    1
    33   162   163    1
    34   165   167    1
    35   165   166    1
    36    23    22    1
    37    23    24    2
    38    22    25    1
    39   168   166    1
    40    29    30    2
    41    29    32   am
    42    26    25    1
    43   148   149    2
    44   148   147    1
    45   163   164    2
    46   151   150    1
    47    32    33    1
    48    41    40    2
    49   147   150    1
    50   147   146    1
    51   169   170    1
    52   150   152    1
    53    40    39    1
    54    33    34    1
    55    33    36    1
    56    38    34   am
    57    38    39    1
    58    37    36    1
    59    34    35    2
    60    39    42    1
    61   170   173    1
    62   170   171    1
    63    42    43    1
    64   107   106    1
    65   174   176    1
    66   174   173    1
    67   174   175    1
    68    66    64    1
    69   171   172    2
    70   139   138    2
    71   108   106    1
    72    45    43   ar
    73    45    47   ar
    74    65    63    1
    75    43    44   ar
    76   106   103    1
    77   138   137    1
    78    64    63    1
    79    63    60    1
    80   123   122    2
    81   105   104    2
    82   124   125    1
    83   124   121    1
    84   122   121    1
    85    44    46   ar
    86    47    46   ar
    87   103   104    1
    88   103   102    1
    89   125   126    1
    90   121   120    1
    91   137   140    1
    92   137   136    1
    93   140   141    1
    94    60    61    1
    95    60    59    1
    96    61    62    2
    97    85    86    1
    98    85    82    1
    99   102    97   am
   100    84    83    2
   101   126   127    1
   102   136   130   am
   103    59    50   am
   104   120   111   am
   105    86    87   ar
   106    86    88   ar
   107    87    89   ar
   108    83    82    1
   109    88    91   ar
   110    88    90   ar
   111    91    93   ar
   112    89    90   ar
   113    90    92   ar
   114    93    94   ar
   115   141   142   ar
   116   141   143   ar
   117    82    81    1
   118    98    97    2
   119    97    96    1
   120    92    94   ar
   121   111   112    2
   122   111   110    1
   123   130   131    2
   124   130   129    1
   125    48    49    1
   126   128   129    1
   127   142   144   ar
   128   109   110    1
   129    50    49    1
   130    50    51    2
   131   143   145   ar
   132    52    49    1
   133    52    53    1
   134   101    99    1
   135   129   132    1
   136   110   113    1
   137    99    96    1
   138    99   100    1
   139    96    95    1
   140    53    54    1
   141    70    69    2
   142   144   145   ar
   143    75    74    2
   144   132   133    1
   145   113   114    1
   146    69    68    1
   147    77    78    1
   148    77    76    1
   149    67    68    1
   150    74    73    1
   151    54    55    1
   152   135   133   am
   153    72    73    1
   154    78    79    1
   155   114   115    1
   156   133   134    2
   157    79    80    1
   158    68    71    1
   159    73    76    1
   160    55    56    2
   161    57    56    1
   162   116   115    1
   163   116   117    2
   164   119   117    1
   165    56    58    1
   166   117   118    1
   167   195   193   ar
   168   193   194   ar
   169   193   192    1
   170   192   189    1
   171   187   185    1
   172   186   185    1
   173   185   184    2
   174   212   210   ar
   175   212   214   ar
   176   184   183    1
   177   178   181    1
   178   178   177    1
   179   178   179    1
   180   182   183    1
   181   182   181    1
   182   210   209   ar
   183   189   188    1
   184   189   190    1
   185   214   213   ar
   186   179   180    2
   187   209   208    1
   188   209   211   ar
   189   213   211   ar
   190   191   190    2
   191   208   205    1
   192   202   201    1
   193   196   197    1
   194   205   204    1
   195   205   206    1
   196   197   200    1
   197   197   198    1
   198   200   201    1
   199   201   203    1
   200   207   206    2
   201   198   199    2
