@<TRIPOS>MOLECULE
tmp/1pbyA01.pdb
 260 248 0 0 0
SMALL
GASTEIGER

@<TRIPOS>ATOM
      1  N         50.7120   47.2350   22.0600 N.3    31  LYS31      -0.1245
      2  CA        50.4280   45.9690   22.7210 C.3    31  LYS31       0.1561
      3  C         50.8720   44.8050   21.8270 C.2    31  LYS31       0.2260
      4  O         51.3330   45.0120   20.7100 O.2    31  LYS31      -0.2867
      5  CB        48.9160   45.8600   23.0290 C.3    31  LYS31       0.0271
      6  CG        48.0440   45.7580   21.7860 C.3    31  LYS31       0.0035
      7  CD        46.5640   45.9640   22.0830 C.3    31  LYS31       0.0206
      8  CE        46.2610   47.4140   22.4360 C.3    31  LYS31       0.1093
      9  NZ        44.7970   47.6520   22.5020 N.3    31  LYS31      -0.1314
     10  N         46.9990   41.0580   21.8880 N.3    35  GLY35      -0.1225
     11  CA        46.3050   42.2340   22.3800 C.3    35  GLY35       0.1811
     12  C         45.5380   42.9090   21.2560 C.2    35  GLY35       0.2280
     13  O         44.3520   43.2110   21.3910 O.2    35  GLY35      -0.2866
     14  N         42.3780   41.0350   20.2130 N.3    38  MET38      -0.1230
     15  CA        41.2450   41.2720   21.1050 C.3    38  MET38       0.1702
     16  C         40.5580   42.6290   20.8500 C.2    38  MET38       0.2593
     17  O         39.3300   42.7200   20.8490 O.2    38  MET38      -0.2718
     18  CB        41.7000   41.1570   22.5790 C.3    38  MET38       0.0401
     19  CG        42.0250   39.7260   22.9850 C.3    38  MET38       0.0596
     20  SD        42.5910   39.5230   24.6760 S.3    38  MET38      -0.1393
     21  CE        41.0950   39.9320   25.5890 C.3    38  MET38       0.0692
     22  N         41.3480   43.6740   20.6250 N.am   39  THR39      -0.1953
     23  CA        40.7710   44.9860   20.3650 C.3    39  THR39       0.1897
     24  C         39.9470   44.9790   19.0660 C.2    39  THR39       0.2313
     25  O         38.8180   45.4650   19.0330 O.2    39  THR39      -0.2863
     26  CB        41.8540   46.0580   20.2470 C.3    39  THR39       0.1794
     27  OG1       42.6320   46.0800   21.4500 O.3    39  THR39      -0.2208
     28  CG2       41.2160   47.4200   20.0340 C.3    39  THR39       0.0378
     29  N         36.7050   43.2040   19.4440 N.3    42  ARG42      -0.1245
     30  CA        35.6800   43.9970   20.1210 C.3    42  ARG42       0.1563
     31  C         35.0320   45.0210   19.1670 C.2    42  ARG42       0.2260
     32  O         33.8400   45.3020   19.2710 O.2    42  ARG42      -0.2867
     33  CB        36.2560   44.7190   21.3650 C.3    42  ARG42       0.0307
     34  CG        35.1590   45.3900   22.2050 C.3    42  ARG42       0.0489
     35  CD        35.6580   45.9050   23.5550 C.3    42  ARG42       0.2205
     36  NE        36.5850   47.0310   23.4310 N.pl3  42  ARG42      -0.0865
     37  CZ        37.8970   46.9440   23.6190 C.cat  42  ARG42       0.5346
     38  NH1       38.4570   45.7810   23.9410 N.pl3  42  ARG42       0.1354
     39  NH2       38.6520   48.0240   23.4930 N.pl3  42  ARG42       0.1354
     40  N         32.5890   42.8940   17.2960 N.3    45  ARG45      -0.1231
     41  CA        31.5200   42.4280   18.1650 C.3    45  ARG45       0.1694
     42  C         30.6240   43.5210   18.7630 C.2    45  ARG45       0.2592
     43  O         29.3950   43.4550   18.6660 O.2    45  ARG45      -0.2718
     44  CB        32.1110   41.5990   19.3240 C.3    45  ARG45       0.0321
     45  CG        31.0660   40.8710   20.1510 C.3    45  ARG45       0.0489
     46  CD        31.5190   40.6750   21.6000 C.3    45  ARG45       0.2205
     47  NE        32.8520   40.0830   21.7220 N.pl3  45  ARG45      -0.0865
     48  CZ        33.8960   40.6960   22.2770 C.cat  45  ARG45       0.5346
     49  NH1       33.7750   41.9280   22.7600 N.pl3  45  ARG45       0.1354
     50  NH2       35.0650   40.0720   22.3640 N.pl3  45  ARG45       0.1354
     51  N         31.2520   44.5080   19.3910 N.am   46  ASN46      -0.1974
     52  CA        30.5240   45.5780   20.0640 C.3    46  ASN46       0.1688
     53  C         30.0530   46.7370   19.1940 C.2    46  ASN46       0.2292
     54  O         29.0100   47.3350   19.4590 O.2    46  ASN46      -0.2864
     55  CB        31.3800   46.1850   21.1990 C.3    46  ASN46       0.1181
     56  CG        31.6910   45.2040   22.3080 C.2    46  ASN46       0.2629
     57  OD1       32.0040   45.6120   23.4310 O.2    46  ASN46      -0.2716
     58  ND2       31.6300   43.9150   22.0050 N.am   46  ASN46      -0.0877
     59  N         42.4980   45.3880   41.9910 N.3    99  THR99      -0.1203
     60  CA        41.7550   46.2490   41.0860 C.3    99  THR99       0.1994
     61  C         41.7720   45.8190   39.6220 C.2    99  THR99       0.2618
     62  O         40.7460   45.8850   38.9510 O.2    99  THR99      -0.2717
     63  CB        42.2760   47.7010   41.1560 C.3    99  THR99       0.1784
     64  OG1       42.2410   48.1550   42.5130 O.3    99  THR99      -0.2211
     65  CG2       41.4210   48.6240   40.3000 C.3    99  THR99       0.0376
     66  N         42.9290   45.3630   39.1460 N.am  100  CYS100     -0.1969
     67  CA        43.0750   45.0080   37.7400 C.3   100  CYS100      0.1712
     68  C         43.3480   43.5580   37.3780 C.2   100  CYS100      0.2296
     69  O         43.4070   43.2250   36.1950 O.2   100  CYS100     -0.2864
     70  CB        44.1660   45.8970   37.1180 C.3   100  CYS100      0.0983
     71  SG        43.7440   47.6580   37.2670 S.3   100  CYS100     -0.0798
     72  N         41.5990   40.8760   39.0870 N.3   102  ARG102     -0.1231
     73  CA        40.5570   40.0380   39.6850 C.3   102  ARG102      0.1694
     74  C         39.5850   39.3860   38.6840 C.2   102  ARG102      0.2592
     75  O         38.8700   38.4460   39.0350 O.2   102  ARG102     -0.2718
     76  CB        39.7610   40.8370   40.7350 C.3   102  ARG102      0.0321
     77  CG        38.9410   41.9870   40.1810 C.3   102  ARG102      0.0489
     78  CD        38.2280   42.7120   41.3220 C.3   102  ARG102      0.2205
     79  NE        37.4230   43.8230   40.8350 N.pl3 102  ARG102     -0.0865
     80  CZ        36.1960   43.7040   40.3390 C.cat 102  ARG102      0.5346
     81  NH1       35.6100   42.5110   40.2650 N.pl3 102  ARG102      0.1354
     82  NH2       35.5650   44.7820   39.8950 N.pl3 102  ARG102      0.1354
     83  N         39.5410   39.8970   37.4570 N.am  103  CYS103     -0.1956
     84  CA        38.6810   39.3030   36.4330 C.3   103  CYS103      0.1843
     85  C         39.6170   38.5560   35.4760 C.2   103  CYS103      0.2625
     86  O         39.5610   37.3370   35.3610 O.2   103  CYS103     -0.2714
     87  CB        37.8870   40.3820   35.6680 C.3   103  CYS103      0.0997
     88  SG        36.7070   41.3040   36.7120 S.3   103  CYS103     -0.0797
     89  N         40.4830   39.3090   34.8080 N.am  104  HIS104     -0.1973
     90  CA        41.4570   38.7290   33.8910 C.3   104  HIS104      0.1656
     91  C         42.8460   38.8850   34.5190 C.2   104  HIS104      0.2291
     92  O         43.0080   39.5680   35.5340 O.2   104  HIS104     -0.2864
     93  CB        41.4080   39.4450   32.5270 C.3   104  HIS104      0.0771
     94  CG        41.5870   40.9300   32.6170 C.ar  104  HIS104      0.0820
     95  ND1       42.7590   41.4870   33.0400 N.ar  104  HIS104     -0.2267
     96  CD2       40.5590   41.7140   32.2740 C.ar  104  HIS104      0.1154
     97  CE1       42.4440   42.8290   32.9600 C.ar  104  HIS104      0.1986
     98  NE2       41.0910   42.9850   32.4890 N.ar  104  HIS104     -0.2212
     99  N         47.5450   40.9390   31.2840 N.3   108  ARG108     -0.1231
    100  CA        46.8250   41.6100   30.2050 C.3   108  ARG108      0.1694
    101  C         47.1030   43.1220   30.2710 C.2   108  ARG108      0.2591
    102  O         47.1630   43.8030   29.2480 O.2   108  ARG108     -0.2718
    103  CB        45.3070   41.3580   30.3270 C.3   108  ARG108      0.0321
    104  CG        44.5080   41.9060   29.1620 C.3   108  ARG108      0.0489
    105  CD        43.0100   41.6580   29.3290 C.3   108  ARG108      0.2205
    106  NE        42.6670   40.2340   29.2800 N.pl3 108  ARG108     -0.0865
    107  CZ        41.4240   39.7750   29.1910 C.cat 108  ARG108      0.5346
    108  NH1       40.4090   40.6230   29.1440 N.pl3 108  ARG108      0.1354
    109  NH2       41.1910   38.4670   29.1390 N.pl3 108  ARG108      0.1354
    110  N         47.2700   43.6250   31.4900 N.am  109  VAL109     -0.1980
    111  CA        47.5550   45.0400   31.7150 C.3   109  VAL109      0.1595
    112  C         49.0320   45.3590   31.4320 C.2   109  VAL109      0.2287
    113  O         49.3530   46.2870   30.6750 O.2   109  VAL109     -0.2864
    114  CB        47.2710   45.4310   33.1860 C.3   109  VAL109      0.0276
    115  CG1       47.5940   46.9100   33.4070 C.3   109  VAL109      0.0022
    116  CG2       45.8170   45.1180   33.5360 C.3   109  VAL109      0.0022
    117  N         50.8310   46.1670   27.8990 N.3   112  GLN112     -0.1245
    118  CA        50.3540   47.3060   27.1340 C.3   112  GLN112      0.1566
    119  C         51.0990   48.5760   27.5610 C.2   112  GLN112      0.2260
    120  O         51.6140   48.6520   28.6680 O.2   112  GLN112     -0.2867
    121  CB        48.8340   47.4920   27.3110 C.3   112  GLN112      0.0367
    122  CG        48.0210   46.3380   26.7280 C.3   112  GLN112      0.0905
    123  CD        46.6680   46.7680   26.1980 C.2   112  GLN112      0.2608
    124  OE1       46.3530   47.9520   26.1490 O.2   112  GLN112     -0.2717
    125  NE2       45.8650   45.7980   25.7810 N.am  112  GLN112     -0.0878
    126  N         50.5510   52.9240   27.0080 N.3   114  ARG114     -0.1245
    127  CA        49.6430   53.9350   26.4800 C.3   114  ARG114      0.1563
    128  C         49.9350   55.3350   27.0190 C.2   114  ARG114      0.2260
    129  O         50.6610   55.4960   27.9900 O.2   114  ARG114     -0.2867
    130  CB        48.1800   53.6010   26.8530 C.3   114  ARG114      0.0307
    131  CG        47.7090   52.1850   26.5440 C.3   114  ARG114      0.0489
    132  CD        46.1990   52.1290   26.7220 C.3   114  ARG114      0.2205
    133  NE        45.6380   50.8060   26.4750 N.pl3 114  ARG114     -0.0865
    134  CZ        44.3670   50.5920   26.1510 C.cat 114  ARG114      0.5346
    135  NH1       43.5330   51.6180   26.0250 N.pl3 114  ARG114      0.1354
    136  NH2       43.9250   49.3520   25.9720 N.pl3 114  ARG114      0.1354
    137  N         45.0050   55.7580   28.9190 N.3   119  TRP119     -0.1241
    138  CA        44.7990   54.8770   30.0640 C.3   119  TRP119      0.1605
    139  C         43.4940   55.3440   30.7310 C.2   119  TRP119      0.2264
    140  O         42.7180   54.5340   31.2450 O.2   119  TRP119     -0.2867
    141  CB        45.9790   54.9590   31.0590 C.3   119  TRP119      0.0550
    142  CG        47.1180   54.0280   30.7310 C.ar  119  TRP119      0.0003
    143  CD1       48.4170   54.3740   30.4670 C.ar  119  TRP119      0.0946
    144  CD2       47.0630   52.5960   30.6480 C.ar  119  TRP119      0.0152
    145  NE1       49.1700   53.2480   30.2280 N.ar  119  TRP119     -0.2442
    146  CE2       48.3640   52.1440   30.3310 C.ar  119  TRP119      0.0810
    147  CE3       46.0390   51.6520   30.8130 C.ar  119  TRP119      0.0012
    148  CZ2       48.6700   50.7860   30.1750 C.ar  119  TRP119      0.0191
    149  CZ3       46.3460   50.3010   30.6580 C.ar  119  TRP119      0.0001
    150  CH2       47.6500   49.8830   30.3420 C.ar  119  TRP119      0.0015
    151  N         40.7050   53.9410   28.7890 N.3   122  LEU122     -0.1231
    152  CA        40.5900   52.5090   29.0320 C.3   122  LEU122      0.1693
    153  C         39.7900   52.2380   30.3180 C.2   122  LEU122      0.2591
    154  O         38.9300   51.3630   30.3460 O.2   122  LEU122     -0.2718
    155  CB        41.9830   51.8660   29.1340 C.3   122  LEU122      0.0284
    156  CG        41.9840   50.3640   29.4890 C.3   122  LEU122      0.0019
    157  CD1       41.2480   49.5510   28.4270 C.3   122  LEU122      0.0001
    158  CD2       43.4000   49.9030   29.6100 C.3   122  LEU122      0.0001
    159  N         40.0720   53.0000   31.3700 N.am  123  VAL123     -0.1980
    160  CA        39.3660   52.8080   32.6350 C.3   123  VAL123      0.1595
    161  C         37.8860   53.2040   32.4860 C.2   123  VAL123      0.2287
    162  O         37.0070   52.5690   33.0730 O.2   123  VAL123     -0.2864
    163  CB        40.0410   53.6100   33.7720 C.3   123  VAL123      0.0276
    164  CG1       39.2340   53.4880   35.0580 C.3   123  VAL123      0.0022
    165  CG2       41.4460   53.0810   33.9990 C.3   123  VAL123      0.0022
    166  N         36.2810   52.9280   29.7430 N.3   125  PHE125     -0.1227
    167  CA        35.7140   51.8400   28.9480 C.3   125  PHE125      0.1736
    168  C         35.2110   50.7340   29.8920 C.2   125  PHE125      0.2595
    169  O         34.1090   50.2210   29.7270 O.2   125  PHE125     -0.2718
    170  CB        36.7650   51.2280   27.9900 C.3   125  PHE125      0.0547
    171  CG        36.4450   49.8130   27.5790 C.ar  125  PHE125     -0.0202
    172  CD1       35.3750   49.5430   26.7260 C.ar  125  PHE125     -0.0042
    173  CD2       37.1690   48.7470   28.1040 C.ar  125  PHE125     -0.0042
    174  CE1       35.0260   48.2270   26.4070 C.ar  125  PHE125     -0.0003
    175  CE2       36.8290   47.4280   27.7940 C.ar  125  PHE125     -0.0003
    176  CZ        35.7560   47.1690   26.9450 C.ar  125  PHE125     -0.0000
    177  N         36.0330   50.3780   30.8740 N.am  126  HIS126     -0.1975
    178  CA        35.6620   49.3280   31.8190 C.3   126  HIS126      0.1656
    179  C         34.3800   49.6050   32.6060 C.2   126  HIS126      0.2291
    180  O         33.4730   48.7710   32.6390 O.2   126  HIS126     -0.2864
    181  CB        36.8120   49.0460   32.8050 C.3   126  HIS126      0.0771
    182  CG        37.9090   48.2070   32.2250 C.ar  126  HIS126      0.0820
    183  ND1       38.7650   48.7140   31.2900 N.ar  126  HIS126     -0.2267
    184  CD2       38.0260   46.9230   32.6240 C.ar  126  HIS126      0.1154
    185  CE1       39.5480   47.6080   31.0410 C.ar  126  HIS126      0.1986
    186  NE2       39.1150   46.4950   31.8530 N.ar  126  HIS126     -0.2212
    187  N         31.4350   49.7390   30.0200 N.3   129  GLN129     -0.1231
    188  CA        31.0360   48.4740   29.4030 C.3   129  GLN129      0.1698
    189  C         30.5690   47.4820   30.4780 C.2   129  GLN129      0.2592
    190  O         29.6910   46.6590   30.2370 O.2   129  GLN129     -0.2718
    191  CB        32.2240   47.8700   28.6290 C.3   129  GLN129      0.0381
    192  CG        31.8760   46.6610   27.7580 C.3   129  GLN129      0.0905
    193  CD        30.8740   46.9960   26.6690 C.2   129  GLN129      0.2608
    194  OE1       30.7480   48.1490   26.2620 O.2   129  GLN129     -0.2717
    195  NE2       30.1700   45.9820   26.1770 N.am  129  GLN129     -0.0878
    196  N         31.1720   47.5800   31.6560 N.am  130  PHE130     -0.1976
    197  CA        30.8380   46.7030   32.7710 C.3   130  PHE130      0.1639
    198  C         30.4440   47.5580   33.9830 C.2   130  PHE130      0.2290
    199  O         31.1830   47.6530   34.9550 O.2   130  PHE130     -0.2864
    200  CB        32.0500   45.8170   33.0950 C.3   130  PHE130      0.0560
    201  CG        32.6120   45.1140   31.8880 C.ar  130  PHE130     -0.0200
    202  CD1       33.8550   45.4680   31.3720 C.ar  130  PHE130     -0.0042
    203  CD2       31.8790   44.1230   31.2450 C.ar  130  PHE130     -0.0042
    204  CE1       34.3570   44.8450   30.2290 C.ar  130  PHE130     -0.0003
    205  CE2       32.3700   43.4940   30.1020 C.ar  130  PHE130     -0.0003
    206  CZ        33.6130   43.8580   29.5910 C.ar  130  PHE130     -0.0000
    207  N         30.8820   46.5170   37.6320 N.3   133  LEU133     -0.1245
    208  CA        32.2530   46.3130   38.0890 C.3   133  LEU133      0.1561
    209  C         32.4720   46.9020   39.4950 C.2   133  LEU133      0.2260
    210  O         33.1250   46.2900   40.3370 O.2   133  LEU133     -0.2867
    211  CB        33.2440   46.9490   37.0790 C.3   133  LEU133      0.0270
    212  CG        34.7690   46.8480   37.3270 C.3   133  LEU133      0.0019
    213  CD1       35.5100   47.1810   36.0400 C.3   133  LEU133      0.0001
    214  CD2       35.1950   47.7870   38.4450 C.3   133  LEU133      0.0001
    215  N         31.0120   44.6410   42.4810 N.3   136  GLN136     -0.1245
    216  CA        31.5900   43.3300   42.7500 C.3   136  GLN136      0.1566
    217  C         32.5840   43.2750   43.9270 C.2   136  GLN136      0.2260
    218  O         33.0710   44.3020   44.3960 O.2   136  GLN136     -0.2867
    219  CB        32.2430   42.8140   41.4450 C.3   136  GLN136      0.0367
    220  CG        31.2450   42.8110   40.2800 C.3   136  GLN136      0.0905
    221  CD        31.8880   42.7220   38.9060 C.2   136  GLN136      0.2608
    222  OE1       31.1950   42.7980   37.8830 O.2   136  GLN136     -0.2717
    223  NE2       33.2050   42.5620   38.8690 N.am  136  GLN136     -0.0878
    224  N         35.4230   52.9770   44.3900 N.3   144  TRP144     -0.1241
    225  CA        36.0950   52.5190   43.1810 C.3   144  TRP144      0.1605
    226  C         36.3750   53.6100   42.1320 C.2   144  TRP144      0.2264
    227  O         37.5070   53.7570   41.6690 O.2   144  TRP144     -0.2867
    228  CB        35.2980   51.3770   42.5110 C.3   144  TRP144      0.0550
    229  CG        36.1280   50.6640   41.4810 C.ar  144  TRP144      0.0003
    230  CD1       36.9840   49.6250   41.6990 C.ar  144  TRP144      0.0946
    231  CD2       36.2760   51.0220   40.1010 C.ar  144  TRP144      0.0152
    232  NE1       37.6650   49.3180   40.5420 N.ar  144  TRP144     -0.2442
    233  CE2       37.2490   50.1610   39.5470 C.ar  144  TRP144      0.0810
    234  CE3       35.6820   51.9910   39.2800 C.ar  144  TRP144      0.0012
    235  CZ2       37.6450   50.2400   38.2050 C.ar  144  TRP144      0.0191
    236  CZ3       36.0780   52.0690   37.9430 C.ar  144  TRP144      0.0001
    237  CH2       37.0500   51.1990   37.4230 C.ar  144  TRP144      0.0015
    238  N         44.5560   54.8790   40.3730 N.3   152  ILE152     -0.1245
    239  CA        44.7730   53.8720   39.3390 C.3   152  ILE152      0.1561
    240  C         45.2080   54.4420   37.9820 C.2   152  ILE152      0.2260
    241  O         46.2230   54.0190   37.4320 O.2   152  ILE152     -0.2867
    242  CB        43.5150   52.9960   39.1430 C.3   152  ILE152      0.0252
    243  CG1       43.0080   52.4870   40.5110 C.3   152  ILE152      0.0019
    244  CG2       43.8530   51.7960   38.2620 C.3   152  ILE152      0.0019
    245  CD1       44.0340   51.6600   41.2940 C.3   152  ILE152      0.0001
    246  N         48.8420   53.7880   36.1670 N.3   156  LEU156     -0.1245
    247  CA        48.9770   53.1630   34.8530 C.3   156  LEU156      0.1561
    248  C         49.7650   54.0680   33.8950 C.2   156  LEU156      0.2260
    249  O         50.6570   53.6080   33.1790 O.2   156  LEU156     -0.2867
    250  CB        47.5840   52.8690   34.2650 C.3   156  LEU156      0.0270
    251  CG        46.7710   51.8050   35.0290 C.3   156  LEU156      0.0019
    252  CD1       45.3240   51.8380   34.5650 C.3   156  LEU156      0.0001
    253  CD2       47.3860   50.4260   34.8000 C.3   156  LEU156      0.0001
    254  N         33.6520   32.4070   28.6360 N.3   484  VAL484     -0.1245
    255  CA        34.3780   33.5050   28.0190 C.3   484  VAL484      0.1561
    256  C         35.8570   33.1120   28.1280 C.2   484  VAL484      0.2260
    257  O         36.3020   32.6100   29.1600 O.2   484  VAL484     -0.2867
    258  CB        34.1700   34.8540   28.7530 C.3   484  VAL484      0.0252
    259  CG1       35.1310   35.9080   28.1800 C.3   484  VAL484      0.0019
    260  CG2       32.7290   35.3260   28.5890 C.3   484  VAL484      0.0019
@<TRIPOS>BOND
     1    40    41    1
     2    41    42    1
     3    41    44    1
     4    43    42    2
     5    42    51   am
     6    25    24    2
     7    24    23    1
     8    31    32    2
     9    31    30    1
    10    53    54    2
    11    53    52    1
    12    44    45    1
    13    51    52    1
    14    29    30    1
    15    28    26    1
    16    52    55    1
    17    30    33    1
    18    45    46    1
    19    14    15    1
    20    26    23    1
    21    26    27    1
    22    23    22    1
    23    22    16   am
    24     4     3    2
    25    17    16    2
    26    16    15    1
    27    15    18    1
    28    55    56    1
    29    12    13    2
    30    12    11    1
    31    33    34    1
    32    46    47    1
    33    47    48    2
    34     6     7    1
    35     6     5    1
    36     3     2    1
    37    10    11    1
    38    58    56   am
    39     1     2    1
    40     7     8    1
    41    34    35    1
    42    48    50    1
    43    48    49    1
    44    56    57    2
    45     8     9    1
    46    18    19    1
    47     2     5    1
    48    19    20    1
    49    36    35    1
    50    36    37    2
    51    39    37    1
    52    37    38    1
    53    20    21    1
    54   125   123   am
    55   136   134    1
    56   135   134    1
    57   124   123    2
    58   134   133    2
    59   195   193   am
    60   123   122    1
    61   194   193    2
    62   174   172   ar
    63   174   176   ar
    64   133   132    1
    65   127   130    1
    66   127   126    1
    67   127   128    1
    68   131   132    1
    69   131   130    1
    70   193   192    1
    71   172   171   ar
    72   122   121    1
    73   176   175   ar
    74   128   129    2
    75   118   121    1
    76   118   119    1
    77   118   117    1
    78   119   120    2
    79   171   170    1
    80   171   173   ar
    81   192   191    1
    82   175   173   ar
    83   170   167    1
    84   255   256    1
    85   255   254    1
    86   255   258    1
    87   256   257    2
    88   259   258    1
    89   157   156    1
    90   260   258    1
    91   191   188    1
    92   151   152    1
    93   137   138    1
    94   167   166    1
    95   167   168    1
    96   152   155    1
    97   152   153    1
    98   155   156    1
    99   109   107    1
   100   108   107    1
   101   104   105    1
   102   104   103    1
   103   107   106    2
   104   102   101    2
   105   106   105    1
   106   188   187    1
   107   188   189    1
   108   156   158    1
   109   206   205   ar
   110   206   204   ar
   111   169   168    2
   112   168   177   am
   113   138   139    1
   114   138   141    1
   115   205   203   ar
   116   148   146   ar
   117   148   150   ar
   118   100   101    1
   119   100   103    1
   120   100    99    1
   121   145   146   ar
   122   145   143   ar
   123   204   202   ar
   124   190   189    2
   125   101   110   am
   126   153   154    2
   127   153   159   am
   128   146   144   ar
   129   150   149   ar
   130   143   142   ar
   131   189   196   am
   132   144   142   ar
   133   144   147   ar
   134   149   147   ar
   135   113   112    2
   136   139   140    2
   137   142   141    1
   138   177   178    1
   139   185   183   ar
   140   185   186   ar
   141   203   201   ar
   142   183   182   ar
   143   159   160    1
   144   202   201   ar
   145   112   111    1
   146   110   111    1
   147   196   197    1
   148   111   114    1
   149   178   179    1
   150   178   181    1
   151   186   184   ar
   152   201   200    1
   153   182   184   ar
   154   182   181    1
   155    96    98   ar
   156    96    94   ar
   157   161   160    1
   158   161   162    2
   159    98    97   ar
   160    93    94    1
   161    93    90    1
   162   179   180    2
   163    94    95   ar
   164   160   163    1
   165   197   200    1
   166   197   198    1
   167    97    95   ar
   168   249   248    2
   169   114   115    1
   170   114   116    1
   171   163   165    1
   172   163   164    1
   173    90    91    1
   174    90    89    1
   175   248   247    1
   176   198   199    2
   177   250   247    1
   178   250   251    1
   179    91    92    2
   180   252   251    1
   181   253   251    1
   182    89    85   am
   183   247   246    1
   184    86    85    2
   185    85    84    1
   186    87    84    1
   187    87    88    1
   188   213   212    1
   189    69    68    2
   190    84    83    1
   191   211   212    1
   192   211   208    1
   193    70    71    1
   194    70    67    1
   195   212   214    1
   196    68    67    1
   197   237   236   ar
   198   237   235   ar
   199   241   240    2
   200    83    74   am
   201   207   208    1
   202    67    66    1
   203   222   221    2
   204   236   234   ar
   205   240   239    1
   206   208   209    1
   207   235   233   ar
   208   244   242    1
   209    74    75    2
   210    74    73    1
   211   223   221   am
   212   221   220    1
   213    62    61    2
   214    72    73    1
   215   242   239    1
   216   242   243    1
   217    66    61   am
   218   234   231   ar
   219   239   238    1
   220   209   210    2
   221   233   231   ar
   222   233   232   ar
   223    61    60    1
   224    73    76    1
   225    82    80    1
   226   231   229   ar
   227    77    76    1
   228    77    78    1
   229    81    80    1
   230   220   219    1
   231    65    63    1
   232    80    79    2
   233   243   245    1
   234   232   230   ar
   235    79    78    1
   236    60    63    1
   237    60    59    1
   238    63    64    1
   239   219   216    1
   240   229   230   ar
   241   229   228    1
   242   227   226    2
   243   226   225    1
   244   215   216    1
   245   228   225    1
   246   216   217    1
   247   225   224    1
   248   217   218    2
