@<TRIPOS>MOLECULE
tmp/1pcaA01.pdb
 119 110 0 0 0
SMALL
GASTEIGER

@<TRIPOS>ATOM
      1  N         48.0530   29.7270   26.5670 N.3   163  HIS163     -0.1241
      2  CA        47.2930   30.9530   26.5930 C.3   163  HIS163      0.1621
      3  C         45.9950   30.6890   25.8730 C.2   163  HIS163      0.2264
      4  O         46.0930   30.3070   24.7280 O.2   163  HIS163     -0.2867
      5  CB        47.9790   32.0240   25.7560 C.3   163  HIS163      0.0745
      6  CG        49.1500   32.6210   26.5370 C.ar  163  HIS163      0.0817
      7  ND1       50.3170   33.0590   25.8720 N.ar  163  HIS163     -0.2268
      8  CD2       49.2310   32.8920   27.8440 C.ar  163  HIS163      0.1154
      9  CE1       51.1400   33.6310   26.8310 C.ar  163  HIS163      0.1986
     10  NE2       50.4650   33.5520   28.0650 N.ar  163  HIS163     -0.2212
     11  N         44.3240   31.6590   22.3430 N.3   166  GLU166     -0.1245
     12  CA        45.0510   31.2440   21.1110 C.3   166  GLU166      0.1567
     13  C         44.5200   30.0000   20.3990 C.2   166  GLU166      0.2260
     14  O         45.2060   29.0030   20.3540 O.2   166  GLU166     -0.2867
     15  CB        46.5680   31.1630   21.4200 C.3   166  GLU166      0.0388
     16  CG        46.9750   32.5240   21.9710 C.3   166  GLU166      0.1160
     17  CD        48.3560   32.5870   22.5850 C.2   166  GLU166      0.3649
     18  OE1       49.1120   31.6030   22.5090 O.co2 166  GLU166     -0.2457
     19  OE2       48.7070   33.6510   23.1510 O.co2 166  GLU166     -0.2457
     20  N         43.4340   35.3580   28.4050 N.3   221  ARG221     -0.1245
     21  CA        44.7570   34.7210   28.1420 C.3   221  ARG221      0.1563
     22  C         45.3340   33.9950   29.3560 C.2   221  ARG221      0.2260
     23  O         46.0660   33.0450   29.1350 O.2   221  ARG221     -0.2867
     24  CB        45.8470   35.6930   27.6500 C.3   221  ARG221      0.0307
     25  CG        46.6720   36.3620   28.7460 C.3   221  ARG221      0.0489
     26  CD        47.6960   37.4160   28.2410 C.3   221  ARG221      0.2205
     27  NE        48.5090   36.9730   27.1140 N.pl3 221  ARG221     -0.0865
     28  CZ        49.8290   36.8860   27.0500 C.cat 221  ARG221      0.5346
     29  NH1       50.5870   37.1130   28.1140 N.pl3 221  ARG221      0.1354
     30  NH2       50.3370   36.6240   25.8620 N.pl3 221  ARG221      0.1354
     31  N         52.9230   32.2590   31.2470 N.3   238  ASN238     -0.1225
     32  CA        54.2400   32.2560   30.6010 C.3   238  ASN238      0.1785
     33  C         54.9450   33.5120   31.1160 C.2   238  ASN238      0.2597
     34  O         55.8610   34.0030   30.4680 O.2   238  ASN238     -0.2718
     35  CB        54.0390   32.3670   29.0800 C.3   238  ASN238      0.1169
     36  CG        55.3030   32.0270   28.3200 C.2   238  ASN238      0.2627
     37  OD1       56.0210   31.1130   28.6930 O.2   238  ASN238     -0.2716
     38  ND2       55.4720   32.7280   27.2390 N.am  238  ASN238     -0.0877
     39  N         54.6450   33.8530   32.3270 N.am  239  ARG239     -0.1979
     40  CA        55.4670   34.7840   33.1030 C.3   239  ARG239      0.1597
     41  C         55.6910   34.1650   34.4870 C.2   239  ARG239      0.2287
     42  O         56.1330   34.8950   35.3680 O.2   239  ARG239     -0.2864
     43  CB        54.8330   36.1380   33.4100 C.3   239  ARG239      0.0334
     44  CG        54.5430   36.9840   32.1480 C.3   239  ARG239      0.0492
     45  CD        55.8240   37.3280   31.3900 C.3   239  ARG239      0.2205
     46  NE        55.5360   38.1710   30.2210 N.pl3 239  ARG239     -0.0865
     47  CZ        55.1980   37.6060   29.0620 C.cat 239  ARG239      0.5346
     48  NH1       55.1320   36.2840   28.9140 N.pl3 239  ARG239      0.1354
     49  NH2       54.9290   38.3520   28.0370 N.pl3 239  ARG239      0.1354
     50  N         52.3120   28.7910   20.6690 N.3   290  HIS290     -0.1241
     51  CA        51.3880   29.9460   20.7970 C.3   290  HIS290      0.1621
     52  C         50.9100   30.4000   19.4140 C.2   290  HIS290      0.2264
     53  O         51.4280   29.9250   18.3980 O.2   290  HIS290     -0.2867
     54  CB        52.1800   31.1570   21.2920 C.3   290  HIS290      0.0745
     55  CG        52.7580   30.8830   22.6810 C.ar  290  HIS290      0.0817
     56  ND1       52.1790   31.4210   23.7850 N.ar  290  HIS290     -0.2268
     57  CD2       53.7930   30.1050   23.0710 C.ar  290  HIS290      0.1154
     58  CE1       52.8580   30.9120   24.9120 C.ar  290  HIS290      0.1986
     59  NE2       53.8750   30.1170   24.4530 N.ar  290  HIS290     -0.2212
     60  N         61.0120   30.6880   17.9190 N.3   297  LEU297     -0.1245
     61  CA        61.8220   31.4520   18.8930 C.3   297  LEU297      0.1561
     62  C         62.6080   30.4670   19.7740 C.2   297  LEU297      0.2260
     63  O         62.1340   29.3780   20.0610 O.2   297  LEU297     -0.2867
     64  CB        60.9010   32.2440   19.8600 C.3   297  LEU297      0.0270
     65  CG        60.1930   33.3790   19.1190 C.3   297  LEU297      0.0019
     66  CD1       59.0580   33.9570   19.9540 C.3   297  LEU297      0.0001
     67  CD2       61.2110   34.4350   18.6530 C.3   297  LEU297      0.0001
     68  N         63.9560   34.9920   21.6940 N.3   337  ILE337     -0.1245
     69  CA        62.7140   35.7320   22.0260 C.3   337  ILE337      0.1561
     70  C         63.0000   37.2270   22.1660 C.2   337  ILE337      0.2260
     71  O         62.2540   38.0420   21.7120 O.2   337  ILE337     -0.2867
     72  CB        62.1150   35.1240   23.3330 C.3   337  ILE337      0.0252
     73  CG1       61.8380   33.6310   23.1840 C.3   337  ILE337      0.0019
     74  CG2       60.9030   35.9080   23.8340 C.3   337  ILE337      0.0019
     75  CD1       61.5560   33.0330   24.5580 C.3   337  ILE337      0.0001
     76  N         60.8560   39.2170   19.5030 N.3   341  ILE341     -0.1231
     77  CA        59.5430   39.7230   19.8480 C.3   341  ILE341      0.1692
     78  C         59.6460   40.8500   20.8760 C.2   341  ILE341      0.2592
     79  O         59.6360   42.0130   20.4840 O.2   341  ILE341     -0.2718
     80  CB        58.4780   38.6300   20.1700 C.3   341  ILE341      0.0266
     81  CG1       57.0870   39.2310   20.3450 C.3   341  ILE341      0.0019
     82  CG2       58.8200   37.6300   21.3100 C.3   341  ILE341      0.0020
     83  CD1       55.9360   38.1790   20.1820 C.3   341  ILE341      0.0001
     84  N         60.0220   40.4940   22.0820 N.am  342  TYR342     -0.1976
     85  CA        60.3870   41.4120   23.1100 C.3   342  TYR342      0.1639
     86  C         61.0080   40.7040   24.3200 C.2   342  TYR342      0.2290
     87  O         61.0190   39.4750   24.4720 O.2   342  TYR342     -0.2864
     88  CB        59.1610   42.1550   23.6560 C.3   342  TYR342      0.0560
     89  CG        57.8410   41.3890   23.6920 C.ar  342  TYR342     -0.0198
     90  CD1       57.6900   40.2870   24.4840 C.ar  342  TYR342     -0.0009
     91  CD2       56.7760   41.8690   22.9860 C.ar  342  TYR342     -0.0009
     92  CE1       56.4740   39.6310   24.5360 C.ar  342  TYR342      0.0417
     93  CE2       55.5540   41.2120   23.0280 C.ar  342  TYR342      0.0417
     94  CZ        55.4080   40.0760   23.8010 C.ar  342  TYR342      0.1957
     95  OH        54.1870   39.4200   23.9200 O.3   342  TYR342     -0.2866
     96  N         60.7970   39.4350   27.8770 N.3   344  ALA344     -0.1245
     97  CA        59.7010   38.9520   28.7070 C.3   344  ALA344      0.1562
     98  C         60.2350   37.8970   29.6750 C.2   344  ALA344      0.2260
     99  O         60.9180   36.9560   29.2620 O.2   344  ALA344     -0.2867
    100  CB        58.6480   38.2980   27.7850 C.3   344  ALA344      0.0290
    101  N         59.4680   33.0160   31.2270 N.3   347  GLY347     -0.1225
    102  CA        58.9020   32.1440   30.1540 C.3   347  GLY347      0.1811
    103  C         59.2190   30.6690   30.3800 C.2   347  GLY347      0.2280
    104  O         60.2330   30.3780   31.0140 O.2   347  GLY347     -0.2866
    105  N         59.9130   27.8050   20.9720 N.3   362  SER362     -0.1217
    106  CA        58.5590   28.3280   21.1690 C.3   362  SER362      0.1889
    107  C         58.0200   28.8310   19.8230 C.2   362  SER362      0.2288
    108  O         58.7450   29.4800   19.0960 O.2   362  SER362     -0.2866
    109  CB        58.6600   29.5370   22.1540 C.3   362  SER362      0.2089
    110  OG        57.3780   30.1350   22.3660 O.3   362  SER362     -0.2183
    111  N         55.1780   30.8710   17.4480 N.3   364  GLU364     -0.1245
    112  CA        54.0230   31.7850   17.3460 C.3   364  GLU364      0.1567
    113  C         53.4440   31.5830   15.9450 C.2   364  GLU364      0.2260
    114  O         54.1630   31.7550   14.9650 O.2   364  GLU364     -0.2867
    115  CB        54.4280   33.2900   17.4240 C.3   364  GLU364      0.0388
    116  CG        55.3550   33.6040   18.6190 C.3   364  GLU364      0.1160
    117  CD        54.5030   33.6340   19.8800 C.2   364  GLU364      0.3649
    118  OE1       53.2740   33.7850   19.7370 O.co2 364  GLU364     -0.2457
    119  OE2       55.0580   33.4770   21.0020 O.co2 364  GLU364     -0.2457
@<TRIPOS>BOND
     1   114   113    2
     2   113   112    1
     3   112   115    1
     4   112   111    1
     5   115   116    1
     6    60    61    1
     7    53    52    2
     8   116   117    1
     9    67    65    1
    10    61    62    1
    11    61    64    1
    12   108   107    2
    13    65    64    1
    14    65    66    1
    15    52    51    1
    16    76    77    1
    17   118   117   ar
    18    62    63    2
    19   107   106    1
    20    77    80    1
    21    77    78    1
    22   117   119   ar
    23    80    81    1
    24    80    82    1
    25    83    81    1
    26    14    13    2
    27    13    12    1
    28    79    78    2
    29    50    51    1
    30    51    54    1
    31    78    84   am
    32   105   106    1
    33    12    15    1
    34    12    11    1
    35   106   109    1
    36    54    55    1
    37    15    16    1
    38    68    69    1
    39    71    70    2
    40    16    17    1
    41    69    70    1
    42    69    72    1
    43    84    85    1
    44   109   110    1
    45    18    17   ar
    46    17    19   ar
    47    55    57   ar
    48    55    56   ar
    49    91    93   ar
    50    91    89   ar
    51    93    94   ar
    52    57    59   ar
    53    85    88    1
    54    85    86    1
    55    73    72    1
    56    73    75    1
    57    72    74    1
    58    88    89    1
    59    89    90   ar
    60    56    58   ar
    61    94    95    1
    62    94    92   ar
    63    86    87    2
    64    59    58   ar
    65    90    92   ar
    66     4     3    2
    67     5     6    1
    68     5     2    1
    69    30    28    1
    70     7     6   ar
    71     7     9   ar
    72     3     2    1
    73     6     8   ar
    74     1     2    1
    75     9    10   ar
    76    28    27    2
    77    28    29    1
    78    27    26    1
    79    38    36   am
    80    24    21    1
    81    24    25    1
    82   100    97    1
    83     8    10   ar
    84    96    97    1
    85    49    47    1
    86    21    20    1
    87    21    22    1
    88    26    25    1
    89    36    37    2
    90    36    35    1
    91    97    98    1
    92    48    47    1
    93    47    46    2
    94    35    32    1
    95    23    22    2
    96    99    98    2
    97   102   103    1
    98   102   101    1
    99    46    45    1
   100   103   104    2
   101    34    33    2
   102    32    33    1
   103    32    31    1
   104    33    39   am
   105    45    44    1
   106    44    43    1
   107    39    40    1
   108    40    43    1
   109    40    41    1
   110    41    42    2
