@<TRIPOS>MOLECULE
tmp/1pcgB00.pdb
 117 109 0 0 0
SMALL
GASTEIGER

@<TRIPOS>ATOM
      1  N          9.7840   38.2770   44.3910 N.3    52  VAL52      -0.1245
      2  CA        10.3710   38.2280   45.7240 C.3    52  VAL52       0.1561
      3  C         10.6860   36.7600   46.0500 C.2    52  VAL52       0.2260
      4  O         11.8040   36.4250   46.4780 O.2    52  VAL52      -0.2867
      5  CB         9.4050   38.8110   46.7860 C.3    52  VAL52       0.0252
      6  CG1        9.8880   38.4650   48.1840 C.3    52  VAL52       0.0019
      7  CG2        9.3270   40.3150   46.6370 C.3    52  VAL52       0.0019
      8  N         13.6140   35.3290   43.9890 N.3    55  ILE55      -0.1231
      9  CA        14.9350   35.6380   44.5150 C.3    55  ILE55       0.1692
     10  C         15.3020   34.6830   45.6260 C.2    55  ILE55       0.2592
     11  O         16.4740   34.3810   45.8130 O.2    55  ILE55      -0.2718
     12  CB        15.0070   37.0810   45.0370 C.3    55  ILE55       0.0266
     13  CG1       14.8910   38.0380   43.8470 C.3    55  ILE55       0.0019
     14  CG2       16.3030   37.3020   45.8110 C.3    55  ILE55       0.0020
     15  CD1       14.7050   39.4720   44.2230 C.3    55  ILE55       0.0001
     16  N         14.3100   34.1970   46.3650 N.am   56  ASN56      -0.1974
     17  CA        14.6170   33.2620   47.4400 C.3    56  ASN56       0.1688
     18  C         14.9520   31.9210   46.8460 C.2    56  ASN56       0.2292
     19  O         15.8770   31.2340   47.2900 O.2    56  ASN56      -0.2864
     20  CB        13.4480   33.1100   48.4050 C.3    56  ASN56       0.1181
     21  CG        13.2770   34.3200   49.2880 C.2    56  ASN56       0.2629
     22  OD1       14.2370   35.0640   49.5320 O.2    56  ASN56      -0.2716
     23  ND2       12.0590   34.5260   49.7830 N.am   56  ASN56      -0.0877
     24  N         18.5800   31.6150   45.4570 N.3    59  LYS59      -0.1245
     25  CA        19.6070   31.3920   46.4720 C.3    59  LYS59       0.1561
     26  C         19.7660   29.9170   46.8290 C.2    59  LYS59       0.2260
     27  O         20.8160   29.5030   47.2930 O.2    59  LYS59      -0.2867
     28  CB        19.2940   32.2020   47.7380 C.3    59  LYS59       0.0271
     29  CG        19.5800   33.6930   47.6170 C.3    59  LYS59       0.0035
     30  CD        19.4060   34.3690   48.9540 C.3    59  LYS59       0.0206
     31  CE        19.7210   35.8470   48.8760 C.3    59  LYS59       0.1093
     32  NZ        19.3210   36.5270   50.1450 N.3    59  LYS59      -0.1314
     33  N         24.4020   28.6800   42.7500 N.3    64  PHE64      -0.1241
     34  CA        24.0360   30.0840   42.6410 C.3    64  PHE64       0.1605
     35  C         24.7550   31.0240   43.6090 C.2    64  PHE64       0.2264
     36  O         25.4400   31.9490   43.1850 O.2    64  PHE64      -0.2867
     37  CB        22.5310   30.2700   42.7960 C.3    64  PHE64       0.0534
     38  CG        22.0580   31.6540   42.4310 C.ar   64  PHE64      -0.0203
     39  CD1       22.1240   32.1030   41.1090 C.ar   64  PHE64      -0.0042
     40  CD2       21.5950   32.5300   43.4160 C.ar   64  PHE64      -0.0042
     41  CE1       21.7410   33.4040   40.7790 C.ar   64  PHE64      -0.0003
     42  CE2       21.2080   33.8380   43.0960 C.ar   64  PHE64      -0.0003
     43  CZ        21.2820   34.2740   41.7800 C.ar   64  PHE64      -0.0000
     44  N         27.7990   38.9130   44.1610 N.3    69  LEU69      -0.1245
     45  CA        26.5170   39.5980   44.2300 C.3    69  LEU69       0.1561
     46  C         26.1660   40.1930   42.8630 C.2    69  LEU69       0.2260
     47  O         25.0280   40.1200   42.3990 O.2    69  LEU69      -0.2867
     48  CB        26.5790   40.7180   45.2690 C.3    69  LEU69       0.0270
     49  CG        25.2740   41.5090   45.3820 C.3    69  LEU69       0.0019
     50  CD1       24.1880   40.5920   45.9430 C.3    69  LEU69       0.0001
     51  CD2       25.4640   42.7300   46.2710 C.3    69  LEU69       0.0001
     52  N         25.0880   37.5270   40.4780 N.3    72  GLN72      -0.1231
     53  CA        23.7690   37.0400   40.8740 C.3    72  GLN72       0.1698
     54  C         22.6860   37.9980   40.3620 C.2    72  GLN72       0.2592
     55  O         21.6410   37.5770   39.8520 O.2    72  GLN72      -0.2718
     56  CB        23.6770   36.9380   42.3950 C.3    72  GLN72       0.0381
     57  CG        24.4620   35.7880   42.9940 C.3    72  GLN72       0.0905
     58  CD        24.4930   35.8470   44.5100 C.2    72  GLN72       0.2608
     59  OE1       23.4600   36.0090   45.1520 O.2    72  GLN72      -0.2717
     60  NE2       25.6810   35.7160   45.0900 N.am   72  GLN72      -0.0878
     61  N         22.9420   39.2930   40.5210 N.am   73  VAL73      -0.1980
     62  CA        22.0210   40.3170   40.0610 C.3    73  VAL73       0.1595
     63  C         21.8760   40.1870   38.5420 C.2    73  VAL73       0.2287
     64  O         20.7650   40.1920   38.0130 O.2    73  VAL73      -0.2864
     65  CB        22.5520   41.7520   40.4140 C.3    73  VAL73       0.0276
     66  CG1       21.6810   42.8370   39.7600 C.3    73  VAL73       0.0022
     67  CG2       22.5580   41.9420   41.9200 C.3    73  VAL73       0.0022
     68  N         19.7210   37.1090   37.3980 N.3    76  LEU76      -0.1231
     69  CA        18.2910   37.3140   37.6230 C.3    76  LEU76       0.1693
     70  C         17.6770   38.4050   36.7550 C.2    76  LEU76       0.2591
     71  O         16.5200   38.2810   36.3410 O.2    76  LEU76      -0.2718
     72  CB        18.0040   37.6110   39.1010 C.3    76  LEU76       0.0284
     73  CG        18.0520   36.3960   40.0320 C.3    76  LEU76       0.0019
     74  CD1       18.0600   36.8140   41.5040 C.3    76  LEU76       0.0001
     75  CD2       16.8710   35.5180   39.7000 C.3    76  LEU76       0.0001
     76  N         18.4200   39.4740   36.4740 N.am   77  GLU77      -0.1979
     77  CA        17.8590   40.5350   35.6340 C.3    77  GLU77       0.1602
     78  C         17.6770   39.9850   34.2230 C.2    77  GLU77       0.2287
     79  O         16.7900   40.3930   33.4720 O.2    77  GLU77      -0.2864
     80  CB        18.7950   41.7430   35.5420 C.3    77  GLU77       0.0415
     81  CG        19.2080   42.3690   36.8510 C.3    77  GLU77       0.1163
     82  CD        19.9580   43.6760   36.6360 C.2    77  GLU77       0.3649
     83  OE1       19.3390   44.7450   36.8240 O.co2  77  GLU77      -0.2457
     84  OE2       21.1570   43.6380   36.2650 O.co2  77  GLU77      -0.2457
     85  N          7.8360   48.6210   42.6230 N.3   234  ASP234     -0.1225
     86  CA         9.2750   48.7980   42.7580 C.3   234  ASP234      0.1805
     87  C         10.1790   47.7220   42.1670 C.2   234  ASP234      0.2597
     88  O         11.0690   48.0370   41.3690 O.2   234  ASP234     -0.2718
     89  CB         9.6260   49.0190   44.2260 C.3   234  ASP234      0.1424
     90  CG         9.0350   50.3100   44.7690 C.2   234  ASP234      0.3668
     91  OD1        9.0330   51.3250   44.0300 O.co2 234  ASP234     -0.2456
     92  OD2        8.5810   50.3090   45.9360 O.co2 234  ASP234     -0.2456
     93  N          9.9620   46.4610   42.5410 N.am  235  LEU235     -0.1979
     94  CA        10.8050   45.3780   42.0290 C.3   235  LEU235      0.1596
     95  C         10.6090   45.0980   40.5380 C.2   235  LEU235      0.2287
     96  O         11.5760   45.0660   39.7760 O.2   235  LEU235     -0.2864
     97  CB        10.5880   44.0950   42.8340 C.3   235  LEU235      0.0297
     98  CG        11.6610   43.0210   42.6100 C.3   235  LEU235      0.0022
     99  CD1       13.0340   43.6280   42.8730 C.3   235  LEU235      0.0001
    100  CD2       11.4160   41.8050   43.5230 C.3   235  LEU235      0.0001
    101  N         12.1930   47.6860   38.3950 N.3   238  GLU238     -0.1231
    102  CA        13.6480   47.5800   38.4550 C.3   238  GLU238      0.1699
    103  C         14.1490   46.5040   37.4870 C.2   238  GLU238      0.2592
    104  O         15.0220   46.7540   36.6520 O.2   238  GLU238     -0.2718
    105  CB        14.1000   47.2430   39.8780 C.3   238  GLU238      0.0402
    106  CG        15.6050   47.3410   40.0510 C.3   238  GLU238      0.1161
    107  CD        16.0580   47.1460   41.4840 C.2   238  GLU238      0.3649
    108  OE1       15.6030   47.9080   42.3690 O.co2 238  GLU238     -0.2457
    109  OE2       16.8770   46.2310   41.7210 O.co2 238  GLU238     -0.2457
    110  N         13.5800   45.3070   37.6090 N.am  239  MET239     -0.1979
    111  CA        13.9360   44.1680   36.7600 C.3   239  MET239      0.1605
    112  C         13.6820   44.4770   35.2860 C.2   239  MET239      0.2287
    113  O         14.3680   43.9480   34.4080 O.2   239  MET239     -0.2864
    114  CB        13.1170   42.9340   37.1620 C.3   239  MET239      0.0413
    115  CG        13.1170   42.6260   38.6600 C.3   239  MET239      0.0598
    116  SD        14.4640   41.5590   39.1770 S.3   239  MET239     -0.1393
    117  CE        15.8460   42.5740   38.7650 C.3   239  MET239      0.0692
@<TRIPOS>BOND
     1    79    78    2
     2    78    77    1
     3   113   112    2
     4   112   111    1
     5    80    77    1
     6    80    81    1
     7    77    76    1
     8    84    82   ar
     9    71    70    2
    10    76    70   am
    11    82    83   ar
    12    82    81    1
    13   104   103    2
    14    70    69    1
    15   111   114    1
    16   111   110    1
    17   114   115    1
    18    68    69    1
    19   103   110   am
    20   103   102    1
    21    69    72    1
    22    64    63    2
    23   101   102    1
    24   102   105    1
    25    63    62    1
    26   115   116    1
    27   117   116    1
    28    72    73    1
    29    75    73    1
    30    66    65    1
    31    96    95    2
    32    55    54    2
    33   105   106    1
    34    73    74    1
    35   106   107    1
    36    62    65    1
    37    62    61    1
    38    54    61   am
    39    54    53    1
    40    65    67    1
    41    52    53    1
    42    95    94    1
    43    41    39   ar
    44    41    43   ar
    45    53    56    1
    46    39    38   ar
    47    88    87    2
    48   107   109   ar
    49   107   108   ar
    50    43    42   ar
    51    94    93    1
    52    94    97    1
    53    87    93   am
    54    87    86    1
    55    56    57    1
    56    47    46    2
    57    38    37    1
    58    38    40   ar
    59    98    97    1
    60    98    99    1
    61    98   100    1
    62    85    86    1
    63    34    33    1
    64    34    37    1
    65    34    35    1
    66    86    89    1
    67    46    45    1
    68    57    58    1
    69    42    40   ar
    70    36    35    2
    71    13    15    1
    72    13    12    1
    73     8     9    1
    74    91    90   ar
    75    44    45    1
    76    89    90    1
    77    45    48    1
    78     1     2    1
    79    58    60   am
    80    58    59    2
    81     9    12    1
    82     9    10    1
    83    90    92   ar
    84    12    14    1
    85    48    49    1
    86    49    50    1
    87    49    51    1
    88    24    25    1
    89    10    11    2
    90    10    16   am
    91     2     3    1
    92     2     5    1
    93     3     4    2
    94    16    17    1
    95    25    26    1
    96    25    28    1
    97     7     5    1
    98     5     6    1
    99    26    27    2
   100    18    19    2
   101    18    17    1
   102    17    20    1
   103    29    28    1
   104    29    30    1
   105    20    21    1
   106    31    30    1
   107    31    32    1
   108    21    22    2
   109    21    23   am
