@<TRIPOS>MOLECULE
tmp/1pcwB00.pdb
 178 165 0 0 0
SMALL
GASTEIGER

@<TRIPOS>ATOM
      1  N         42.3870   23.9530    7.4120 N.3     9  CYS9       -0.1235
      2  CA        41.8830   25.0700    8.2030 C.3     9  CYS9        0.1677
      3  C         42.1510   24.9010    9.6910 C.2     9  CYS9        0.2270
      4  O         42.7140   25.7870   10.3360 O.2     9  CYS9       -0.2867
      5  CB        40.3830   25.2490    7.9840 C.3     9  CYS9        0.0956
      6  SG        39.6950   26.6630    8.8840 S.3     9  CYS9       -0.0801
      7  N         50.2300   26.0380    7.1880 N.3    39  LYS39      -0.1245
      8  CA        49.2950   26.7390    8.0630 C.3    39  LYS39       0.1561
      9  C         48.1590   25.8710    8.5800 C.2    39  LYS39       0.2260
     10  O         47.6350   25.0200    7.8670 O.2    39  LYS39      -0.2867
     11  CB        48.6990   27.9480    7.3200 C.3    39  LYS39       0.0271
     12  CG        47.7050   28.7970    8.1300 C.3    39  LYS39       0.0035
     13  CD        46.3320   28.1460    8.2420 C.3    39  LYS39       0.0206
     14  CE        45.3860   28.9620    9.1190 C.3    39  LYS39       0.1093
     15  NZ        44.0690   28.2830    9.2780 N.3    39  LYS39      -0.1314
     16  N         45.1170   26.2520   12.1260 N.3    41  SER41      -0.1217
     17  CA        44.7050   26.9160   13.3610 C.3    41  SER41       0.1889
     18  C         44.5200   25.9460   14.5250 C.2    41  SER41       0.2288
     19  O         43.8630   24.9150   14.3830 O.2    41  SER41      -0.2866
     20  CB        43.3860   27.6690   13.1320 C.3    41  SER41       0.2089
     21  OG        43.4920   28.5930   12.0610 O.3    41  SER41      -0.2183
     22  N         39.5530   27.5960   16.4880 N.3    44  LYS44      -0.1245
     23  CA        38.6490   28.3980   15.6780 C.3    44  LYS44       0.1561
     24  C         37.8960   29.1360   16.7750 C.2    44  LYS44       0.2260
     25  O         36.8640   28.6740   17.2710 O.2    44  LYS44      -0.2867
     26  CB        37.7190   27.4980   14.8680 C.3    44  LYS44       0.0271
     27  CG        38.4590   26.4290   14.0550 C.3    44  LYS44       0.0035
     28  CD        39.6410   27.0090   13.2660 C.3    44  LYS44       0.0206
     29  CE        39.1950   28.0180   12.2150 C.3    44  LYS44       0.1093
     30  NZ        40.3510   28.5800   11.4480 N.3    44  LYS44      -0.1314
     31  N         36.3320   32.0140   16.6470 N.3    46  ASN46      -0.1225
     32  CA        35.2230   32.8720   16.2380 C.3    46  ASN46       0.1785
     33  C         34.1090   32.1760   15.4560 C.2    46  ASN46       0.2597
     34  O         33.4710   32.8000   14.6040 O.2    46  ASN46      -0.2718
     35  CB        35.7610   34.0490   15.4070 C.3    46  ASN46       0.1169
     36  CG        36.3480   33.6080   14.0670 C.2    46  ASN46       0.2627
     37  OD1       36.6700   34.4400   13.2140 O.2    46  ASN46      -0.2716
     38  ND2       36.4900   32.3030   13.8780 N.am   46  ASN46      -0.0877
     39  N         33.8620   30.8970   15.7390 N.am   47  ARG47      -0.1966
     40  CA        32.8040   30.1690   15.0310 C.3    47  ARG47       0.1729
     41  C         31.4660   30.8540   15.2870 C.2    47  ARG47       0.2617
     42  O         31.2600   31.4590   16.3340 O.2    47  ARG47      -0.2715
     43  CB        32.7010   28.7130   15.5160 C.3    47  ARG47       0.0348
     44  CG        33.9440   27.8480   15.2970 C.3    47  ARG47       0.0492
     45  CD        34.3500   27.7770   13.8280 C.3    47  ARG47       0.2205
     46  NE        33.3220   27.2050   12.9620 N.pl3  47  ARG47      -0.0865
     47  CZ        33.2460   25.9210   12.6160 C.cat  47  ARG47       0.5346
     48  NH1       34.1400   25.0470   13.0640 N.pl3  47  ARG47       0.1354
     49  NH2       32.2830   25.5140   11.7980 N.pl3  47  ARG47       0.1354
     50  N         30.5520   30.7530   14.3330 N.am   48  SER48      -0.1936
     51  CA        29.2440   31.3610   14.5000 C.3    48  SER48       0.2055
     52  C         28.4780   30.6580   15.6200 C.2    48  SER48       0.2643
     53  O         27.8800   31.3060   16.4840 O.2    48  SER48      -0.2714
     54  CB        28.4530   31.2690   13.1940 C.3    48  SER48       0.2130
     55  OG        27.1690   31.8520   13.3490 O.3    48  SER48      -0.2179
     56  N         28.5190   29.3280   15.6150 N.am   49  SER49      -0.1949
     57  CA        27.8090   28.5380   16.6170 C.3    49  SER49       0.1924
     58  C         28.6760   28.0180   17.7590 C.2    49  SER49       0.2314
     59  O         29.8160   27.6200   17.5560 O.2    49  SER49      -0.2863
     60  CB        27.1250   27.3400   15.9580 C.3    49  SER49       0.2116
     61  OG        26.5360   26.5010   16.9420 O.3    49  SER49      -0.2180
     62  N         29.9350   24.3230   17.3270 N.3    52  SER52      -0.1217
     63  CA        30.8260   23.9590   16.2290 C.3    52  SER52       0.1889
     64  C         32.2240   23.5940   16.7240 C.2    52  SER52       0.2288
     65  O         32.6080   23.9290   17.8440 O.2    52  SER52      -0.2866
     66  CB        30.9140   25.1060   15.2170 C.3    52  SER52       0.2089
     67  OG        29.7040   25.2190   14.4850 O.3    52  SER52      -0.2183
     68  N         47.2900   31.2560   13.6650 N.3    79  ASP79      -0.1239
     69  CA        46.7460   32.5090   14.1690 C.3    79  ASP79       0.1674
     70  C         46.5440   32.5540   15.6820 C.2    79  ASP79       0.2266
     71  O         46.3390   31.5280   16.3230 O.2    79  ASP79      -0.2867
     72  CB        45.4360   32.8480   13.4220 C.3    79  ASP79       0.1410
     73  CG        44.4270   31.6960   13.4030 C.2    79  ASP79       0.3668
     74  OD1       44.8120   30.5120   13.5120 O.co2  79  ASP79      -0.2456
     75  OD2       43.2220   31.9860   13.2420 O.co2  79  ASP79      -0.2456
     76  N         49.8290   34.8630   12.5550 N.3    97  GLN97      -0.1245
     77  CA        48.6800   35.3900   11.8190 C.3    97  GLN97       0.1566
     78  C         47.6430   36.0610   12.7190 C.2    97  GLN97       0.2260
     79  O         47.2620   35.5110   13.7500 O.2    97  GLN97      -0.2867
     80  CB        48.0230   34.2540   11.0300 C.3    97  GLN97       0.0367
     81  CG        46.8010   34.6570   10.2160 C.3    97  GLN97       0.0905
     82  CD        46.1960   33.4870    9.4590 C.2    97  GLN97       0.2608
     83  OE1       44.9910   33.2430    9.5300 O.2    97  GLN97      -0.2717
     84  NE2       47.0320   32.7580    8.7260 N.am   97  GLN97      -0.0878
     85  N         43.8090   37.3430   13.0440 N.3    99  PRO99      -0.2102
     86  CA        42.4720   37.1620   12.4630 C.3    99  PRO99       0.1504
     87  C         41.8820   38.4660   11.9320 C.2    99  PRO99       0.2576
     88  O         42.1790   39.5390   12.4470 O.2    99  PRO99      -0.2718
     89  CB        41.6610   36.5950   13.6300 C.3    99  PRO99       0.0282
     90  CG        42.6770   35.8030   14.3780 C.3    99  PRO99       0.0208
     91  CD        43.8750   36.7420   14.3860 C.3    99  PRO99       0.0893
     92  N         41.0340   38.3520   10.9120 N.am  100  ALA100     -0.1966
     93  CA        40.4040   39.5080   10.2770 C.3   100  ALA100      0.1728
     94  C         39.6070   40.3780   11.2380 C.2   100  ALA100      0.2616
     95  O         39.7290   41.6040   11.2080 O.2   100  ALA100     -0.2715
     96  CB        39.5000   39.0490    9.1270 C.3   100  ALA100      0.0334
     97  N         38.7830   39.7560   12.0780 N.am  101  PHE101     -0.1974
     98  CA        37.9810   40.5240   13.0310 C.3   101  PHE101      0.1639
     99  C         38.8480   41.2490   14.0490 C.2   101  PHE101      0.2290
    100  O         38.4160   42.2420   14.6390 O.2   101  PHE101     -0.2864
    101  CB        37.0210   39.6200   13.8150 C.3   101  PHE101      0.0560
    102  CG        35.9680   38.9600   12.9760 C.ar  101  PHE101     -0.0200
    103  CD1       35.5210   39.5450   11.7920 C.ar  101  PHE101     -0.0042
    104  CD2       35.3820   37.7690   13.4000 C.ar  101  PHE101     -0.0042
    105  CE1       34.5060   38.9520   11.0460 C.ar  101  PHE101     -0.0003
    106  CE2       34.3700   37.1710   12.6640 C.ar  101  PHE101     -0.0003
    107  CZ        33.9300   37.7640   11.4840 C.ar  101  PHE101     -0.0000
    108  N         45.2220   39.5660    8.5680 N.3   122  LYS122     -0.1245
    109  CA        44.0990   39.3700    7.6580 C.3   122  LYS122      0.1561
    110  C         43.3150   40.6830    7.6780 C.2   122  LYS122      0.2260
    111  O         42.9190   41.1470    8.7480 O.2   122  LYS122     -0.2867
    112  CB        43.1920   38.2350    8.1570 C.3   122  LYS122      0.0271
    113  CG        43.7450   36.8260    7.9780 C.3   122  LYS122      0.0035
    114  CD        43.8560   36.4810    6.4960 C.3   122  LYS122      0.0206
    115  CE        43.9310   34.9820    6.2680 C.3   122  LYS122      0.1093
    116  NZ        42.6320   34.3150    6.5530 N.3   122  LYS122     -0.1314
    117  N         36.9470   42.5500    7.1540 N.3   125  GLN125     -0.1245
    118  CA        35.9250   42.6960    6.1220 C.3   125  GLN125      0.1566
    119  C         35.3000   44.0950    6.1660 C.2   125  GLN125      0.2260
    120  O         34.5780   44.4920    5.2510 O.2   125  GLN125     -0.2867
    121  CB        34.8330   41.6310    6.3170 C.3   125  GLN125      0.0367
    122  CG        35.3430   40.1830    6.2330 C.3   125  GLN125      0.0905
    123  CD        35.8260   39.6210    7.5670 C.2   125  GLN125      0.2608
    124  OE1       36.4070   40.3310    8.3860 O.2   125  GLN125     -0.2717
    125  NE2       35.5980   38.3290    7.7770 N.am  125  GLN125     -0.0878
    126  N         41.1190   39.2230    2.0390 N.3   152  ARG152     -0.1245
    127  CA        40.2000   38.1030    2.2170 C.3   152  ARG152      0.1563
    128  C         38.7360   38.4860    2.0020 C.2   152  ARG152      0.2260
    129  O         37.8310   37.8340    2.5170 O.2   152  ARG152     -0.2867
    130  CB        40.4040   37.4400    3.5960 C.3   152  ARG152      0.0307
    131  CG        40.3250   38.3620    4.8160 C.3   152  ARG152      0.0489
    132  CD        38.9280   38.3860    5.4430 C.3   152  ARG152      0.2205
    133  NE        38.5880   37.1680    6.1910 N.pl3 152  ARG152     -0.0865
    134  CZ        37.6070   36.3320    5.8540 C.cat 152  ARG152      0.5346
    135  NH1       36.8720   36.5700    4.7770 N.pl3 152  ARG152      0.1354
    136  NH2       37.3380   35.2700    6.6050 N.pl3 152  ARG152      0.1354
    137  N         38.8650   32.0170    1.7610 N.3   183  HIS183     -0.1241
    138  CA        37.8360   32.7260    2.5250 C.3   183  HIS183      0.1621
    139  C         37.1880   33.8720    1.7640 C.2   183  HIS183      0.2264
    140  O         36.0900   34.3070    2.1100 O.2   183  HIS183     -0.2867
    141  CB        38.4030   33.2720    3.8370 C.3   183  HIS183      0.0745
    142  CG        38.8590   32.2120    4.7860 C.ar  183  HIS183      0.0817
    143  ND1       40.1880   31.8900    4.9590 N.ar  183  HIS183     -0.2268
    144  CD2       38.1620   31.3850    5.6000 C.ar  183  HIS183      0.1154
    145  CE1       40.2910   30.9100    5.8380 C.ar  183  HIS183      0.1986
    146  NE2       39.0750   30.5850    6.2430 N.ar  183  HIS183     -0.2212
    147  N         32.8800   34.1350   -0.2740 N.3   186  GLN186     -0.1245
    148  CA        31.7320   33.8760    0.5810 C.3   186  GLN186      0.1566
    149  C         30.4510   34.3740   -0.0900 C.2   186  GLN186      0.2260
    150  O         30.2830   35.5740   -0.3110 O.2   186  GLN186     -0.2867
    151  CB        31.9310   34.5660    1.9350 C.3   186  GLN186      0.0367
    152  CG        31.3840   33.7890    3.1260 C.3   186  GLN186      0.0905
    153  CD        30.0260   34.2830    3.5960 C.2   186  GLN186      0.2608
    154  OE1       29.8930   35.4110    4.0740 O.2   186  GLN186     -0.2717
    155  NE2       29.0110   33.4350    3.4640 N.am  186  GLN186     -0.0878
    156  N         43.5840   27.1620    1.9450 N.3   212  GLU212     -0.1245
    157  CA        43.3350   26.0870    2.8930 C.3   212  GLU212      0.1567
    158  C         43.0900   24.8500    2.0390 C.2   212  GLU212      0.2260
    159  O         42.3610   24.9080    1.0480 O.2   212  GLU212     -0.2867
    160  CB        42.1160   26.3990    3.7550 C.3   212  GLU212      0.0388
    161  CG        42.2180   27.7500    4.4290 C.3   212  GLU212      0.1160
    162  CD        41.3550   27.8570    5.6580 C.2   212  GLU212      0.3649
    163  OE1       40.1530   27.5230    5.5730 O.co2 212  GLU212     -0.2457
    164  OE2       41.8840   28.2840    6.7080 O.co2 212  GLU212     -0.2457
    165  N         35.7610   22.2010    9.5610 N.3   222  SER222     -0.1202
    166  CA        35.6800   23.6470    9.4100 C.3   222  SER222      0.2020
    167  C         35.9380   24.0280    7.9530 C.2   222  SER222      0.2618
    168  O         36.7880   23.4320    7.2930 O.2   222  SER222     -0.2717
    169  CB        36.7130   24.3230   10.3150 C.3   222  SER222      0.2103
    170  OG        36.6660   25.7340   10.1760 O.3   222  SER222     -0.2182
    171  N         35.2000   25.0190    7.4580 N.am  223  ASP223     -0.1973
    172  CA        35.3480   25.4780    6.0770 C.3   223  ASP223      0.1709
    173  C         35.2940   24.3170    5.0850 C.2   223  ASP223      0.2293
    174  O         36.0220   24.3050    4.0930 O.2   223  ASP223     -0.2864
    175  CB        36.6760   26.2240    5.9020 C.3   223  ASP223      0.1436
    176  CG        36.7030   27.5580    6.6280 C.2   223  ASP223      0.3671
    177  OD1       35.7580   27.8570    7.3880 O.co2 223  ASP223     -0.2456
    178  OD2       37.6780   28.3110    6.4360 O.co2 223  ASP223     -0.2456
@<TRIPOS>BOND
     1   150   149    2
     2   147   148    1
     3   149   148    1
     4   148   151    1
     5   159   158    2
     6   137   138    1
     7   139   140    2
     8   139   138    1
     9   151   152    1
    10   156   157    1
    11   128   127    1
    12   128   129    2
    13   126   127    1
    14   158   157    1
    15   127   130    1
    16   138   141    1
    17   157   160    1
    18   152   153    1
    19   155   153   am
    20   153   154    2
    21   130   131    1
    22   160   161    1
    23   141   142    1
    24   174   173    2
    25   161   162    1
    26   135   134    1
    27   142   143   ar
    28   142   144   ar
    29   131   132    1
    30   143   145   ar
    31   173   172    1
    32   120   119    2
    33   132   133    1
    34   163   162   ar
    35   144   146   ar
    36   162   164   ar
    37   145   146   ar
    38   134   133    2
    39   134   136    1
    40   175   172    1
    41   175   176    1
    42   172   171    1
    43   118   119    1
    44   118   121    1
    45   118   117    1
    46   122   121    1
    47   122   123    1
    48   115   114    1
    49   115   116    1
    50   178   176   ar
    51   114   113    1
    52   176   177   ar
    53     7     8    1
    54   168   167    2
    55    11     8    1
    56    11    12    1
    57     1     2    1
    58   171   167   am
    59   123   125   am
    60   123   124    2
    61   109   110    1
    62   109   112    1
    63   109   108    1
    64   110   111    2
    65    10     9    2
    66   167   166    1
    67   113   112    1
    68     5     2    1
    69     5     6    1
    70     8     9    1
    71    12    13    1
    72     2     3    1
    73    13    14    1
    74    84    82   am
    75    14    15    1
    76    96    93    1
    77   166   165    1
    78   166   169    1
    79    82    83    2
    80    82    81    1
    81     3     4    2
    82   170   169    1
    83    81    80    1
    84    93    92    1
    85    93    94    1
    86    92    87   am
    87    80    77    1
    88   105   107   ar
    89   105   103   ar
    90    95    94    2
    91    94    97   am
    92    30    29    1
    93   107   106   ar
    94   103   102   ar
    95    49    47    1
    96    77    76    1
    97    77    78    1
    98    87    88    2
    99    87    86    1
   100    21    20    1
   101    97    98    1
   102    16    17    1
   103    29    28    1
   104    86    85    1
   105    86    89    1
   106    47    46    2
   107    47    48    1
   108   106   104   ar
   109    78    79    2
   110    46    45    1
   111   102   104   ar
   112   102   101    1
   113    98   101    1
   114    98    99    1
   115    85    91    1
   116    20    17    1
   117    54    55    1
   118    54    51    1
   119    37    36    2
   120    75    73   ar
   121    28    27    1
   122    17    18    1
   123    73    72    1
   124    73    74   ar
   125    72    69    1
   126    89    90    1
   127    68    69    1
   128    45    44    1
   129    38    36   am
   130    99   100    2
   131    27    26    1
   132    36    35    1
   133    69    70    1
   134    50    51    1
   135    50    41   am
   136    90    91    1
   137    19    18    2
   138    67    66    1
   139    51    52    1
   140    34    33    2
   141    26    23    1
   142    40    41    1
   143    40    43    1
   144    40    39    1
   145    66    63    1
   146    41    42    2
   147    44    43    1
   148    35    32    1
   149    33    39   am
   150    33    32    1
   151    56    52   am
   152    56    57    1
   153    52    53    2
   154    23    22    1
   155    23    24    1
   156    70    71    2
   157    60    57    1
   158    60    61    1
   159    63    64    1
   160    63    62    1
   161    32    31    1
   162    57    58    1
   163    64    65    2
   164    24    25    2
   165    59    58    2
