@<TRIPOS>MOLECULE
tmp/1pcxA00.pdb
 157 145 0 0 0
SMALL
GASTEIGER

@<TRIPOS>ATOM
      1  N         14.7040   55.0180   67.3530 N.3    98  ARG98      -0.1245
      2  CA        13.7310   53.9430   67.2700 C.3    98  ARG98       0.1563
      3  C         14.1450   52.8500   66.3100 C.2    98  ARG98       0.2260
      4  O         14.6120   53.1270   65.2000 O.2    98  ARG98      -0.2867
      5  CB        12.3790   54.4870   66.8220 C.3    98  ARG98       0.0307
      6  CG        11.6480   55.2730   67.8680 C.3    98  ARG98       0.0489
      7  CD        10.2360   54.7560   67.9690 C.3    98  ARG98       0.2205
      8  NE         9.2860   55.5580   67.2120 N.pl3  98  ARG98      -0.0865
      9  CZ         8.0250   55.2010   66.9950 C.cat  98  ARG98       0.5346
     10  NH1        7.5630   54.0500   67.4700 N.pl3  98  ARG98       0.1354
     11  NH2        7.2230   56.0050   66.3190 N.pl3  98  ARG98       0.1354
     12  N          9.8600   49.1870   65.8160 N.3   103  ARG103     -0.1245
     13  CA         9.5390   50.5850   66.1110 C.3   103  ARG103      0.1563
     14  C          9.5770   50.9600   67.5960 C.2   103  ARG103      0.2260
     15  O          9.0660   52.0170   67.9910 O.2   103  ARG103     -0.2867
     16  CB         8.1630   50.9500   65.5330 C.3   103  ARG103      0.0307
     17  CG         7.9860   50.6300   64.0530 C.3   103  ARG103      0.0489
     18  CD         9.0560   51.2990   63.2220 C.3   103  ARG103      0.2205
     19  NE         8.9650   52.7510   63.3070 N.pl3 103  ARG103     -0.0865
     20  CZ        10.0000   53.5730   63.1620 C.cat 103  ARG103      0.5346
     21  NH1       11.2150   53.0880   62.9260 N.pl3 103  ARG103      0.1354
     22  NH2        9.8180   54.8810   63.2670 N.pl3 103  ARG103      0.1354
     23  N         11.1100   52.1660   71.2640 N.3   105  TYR105     -0.1241
     24  CA        11.9620   53.2910   71.6110 C.3   105  TYR105      0.1605
     25  C         13.2240   52.9070   72.3680 C.2   105  TYR105      0.2264
     26  O         13.2410   51.9110   73.0920 O.2   105  TYR105     -0.2867
     27  CB        11.1630   54.3030   72.4310 C.3   105  TYR105      0.0534
     28  CG         9.9970   54.8850   71.6820 C.ar  105  TYR105     -0.0201
     29  CD1        8.8520   54.1310   71.4400 C.ar  105  TYR105     -0.0009
     30  CD2       10.0490   56.1850   71.1840 C.ar  105  TYR105     -0.0009
     31  CE1        7.7860   54.6580   70.7170 C.ar  105  TYR105      0.0417
     32  CE2        8.9860   56.7260   70.4560 C.ar  105  TYR105      0.0417
     33  CZ         7.8620   55.9560   70.2240 C.ar  105  TYR105      0.1957
     34  OH         6.8320   56.4750   69.4760 O.3   105  TYR105     -0.2866
     35  N          7.1480   65.4500   62.6860 N.3   158  GLU158     -0.1231
     36  CA         6.6030   64.2570   62.0320 C.3   158  GLU158      0.1699
     37  C          5.7740   63.3030   62.9050 C.2   158  GLU158      0.2592
     38  O          5.5690   62.1370   62.5480 O.2   158  GLU158     -0.2718
     39  CB         7.7180   63.4640   61.3280 C.3   158  GLU158      0.0402
     40  CG         8.8230   62.9090   62.2240 C.3   158  GLU158      0.1161
     41  CD         9.9550   63.9000   62.4640 C.2   158  GLU158      0.3649
     42  OE1       11.0360   63.4650   62.9190 O.co2 158  GLU158     -0.2457
     43  OE2        9.7670   65.1110   62.2030 O.co2 158  GLU158     -0.2457
     44  N          5.3050   63.8000   64.0470 N.am  159  TYR159     -0.1962
     45  CA         4.4630   63.0130   64.9440 C.3   159  TYR159      0.1771
     46  C          3.1310   63.7410   65.1130 C.2   159  TYR159      0.2620
     47  O          2.3010   63.3630   65.9420 O.2   159  TYR159     -0.2715
     48  CB         5.1300   62.8220   66.3080 C.3   159  TYR159      0.0574
     49  CG         6.1580   61.7130   66.3520 C.ar  159  TYR159     -0.0198
     50  CD1        7.4950   61.9560   66.0430 C.ar  159  TYR159     -0.0009
     51  CD2        5.7920   60.4210   66.7160 C.ar  159  TYR159     -0.0009
     52  CE1        8.4400   60.9370   66.1010 C.ar  159  TYR159      0.0417
     53  CE2        6.7260   59.3980   66.7760 C.ar  159  TYR159      0.0417
     54  CZ         8.0460   59.6600   66.4710 C.ar  159  TYR159      0.1957
     55  OH         8.9660   58.6410   66.5480 O.3   159  TYR159     -0.2866
     56  N          2.9480   64.7910   64.3130 N.am  160  THR160     -0.1937
     57  CA         1.7320   65.5980   64.3250 C.3   160  THR160      0.2028
     58  C          1.2740   65.8150   62.8860 C.2   160  THR160      0.2642
     59  O          2.0840   66.1340   62.0160 O.2   160  THR160     -0.2714
     60  CB         1.9710   66.9970   64.9380 C.3   160  THR160      0.1808
     61  OG1        2.7160   67.8040   64.0150 O.3   160  THR160     -0.2208
     62  CG2        2.7550   66.8900   66.2210 C.3   160  THR160      0.0379
     63  N         -0.0180   65.6350   62.6350 N.am  161  LEU161     -0.1977
     64  CA        -0.5620   65.8460   61.2970 C.3   161  LEU161      0.1596
     65  C         -1.0420   67.2850   61.2210 C.2   161  LEU161      0.2287
     66  O         -0.8610   67.9610   60.2100 O.2   161  LEU161     -0.2864
     67  CB        -1.7340   64.9010   61.0250 C.3   161  LEU161      0.0297
     68  CG        -1.4250   63.4100   60.8800 C.3   161  LEU161      0.0022
     69  CD1       -2.7170   62.6410   60.6100 C.3   161  LEU161      0.0001
     70  CD2       -0.4250   63.2100   59.7460 C.3   161  LEU161      0.0001
     71  N        -11.9670   63.2880   67.6750 N.3   325  GLN325     -0.1245
     72  CA       -11.3120   63.4590   68.9670 C.3   325  GLN325      0.1566
     73  C        -12.1470   64.1450   70.0480 C.2   325  GLN325      0.2260
     74  O        -11.7110   65.1250   70.6480 O.2   325  GLN325     -0.2867
     75  CB       -10.0140   64.2440   68.7860 C.3   325  GLN325      0.0367
     76  CG        -9.1280   63.7640   67.6540 C.3   325  GLN325      0.0905
     77  CD        -8.7690   62.2930   67.7630 C.2   325  GLN325      0.2608
     78  OE1       -8.2760   61.8320   68.7980 O.2   325  GLN325     -0.2717
     79  NE2       -9.0040   61.5490   66.6850 N.am  325  GLN325     -0.0878
     80  N         -6.0540   63.9880   71.3530 N.3   386  GLU386     -0.1245
     81  CA        -5.5050   63.2400   70.2240 C.3   386  GLU386      0.1567
     82  C         -4.4450   62.2580   70.6970 C.2   386  GLU386      0.2260
     83  O         -3.3860   62.1320   70.0860 O.2   386  GLU386     -0.2867
     84  CB        -4.8390   64.1700   69.2290 C.3   386  GLU386      0.0388
     85  CG        -5.7000   65.2300   68.6220 C.3   386  GLU386      0.1160
     86  CD        -4.8860   66.0740   67.6630 C.2   386  GLU386      0.3649
     87  OE1       -3.8630   66.6520   68.1150 O.co2 386  GLU386     -0.2457
     88  OE2       -5.2540   66.1420   66.4670 O.co2 386  GLU386     -0.2457
     89  N         -2.9960   58.4050   71.7790 N.3   388  VAL388     -0.1245
     90  CA        -3.1370   57.0050   71.4510 C.3   388  VAL388      0.1561
     91  C         -2.0670   56.2920   72.2680 C.2   388  VAL388      0.2260
     92  O         -0.9440   56.7810   72.3950 O.2   388  VAL388     -0.2867
     93  CB        -2.9530   56.7400   69.9330 C.3   388  VAL388      0.0252
     94  CG1       -4.0010   57.5070   69.1520 C.3   388  VAL388      0.0019
     95  CG2       -1.5570   57.1300   69.4820 C.3   388  VAL388      0.0019
     96  N         -0.1690   52.4700   73.0990 N.3   390  ARG390     -0.1245
     97  CA         0.1470   51.1370   72.6170 C.3   390  ARG390      0.1563
     98  C          1.2460   50.5450   73.4810 C.2   390  ARG390      0.2260
     99  O          2.1500   51.2560   73.9330 O.2   390  ARG390     -0.2867
    100  CB         0.6290   51.2060   71.1710 C.3   390  ARG390      0.0307
    101  CG         1.5220   50.0560   70.7500 C.3   390  ARG390      0.0489
    102  CD         2.0150   50.2550   69.3290 C.3   390  ARG390      0.2205
    103  NE         0.9340   50.0770   68.3680 N.pl3 390  ARG390     -0.0865
    104  CZ         0.8340   50.7370   67.2200 C.cat 390  ARG390      0.5346
    105  NH1        1.7550   51.6300   66.8780 N.pl3 390  ARG390      0.1354
    106  NH2       -0.1980   50.5110   66.4190 N.pl3 390  ARG390      0.1354
    107  N          4.1110   47.6200   73.4380 N.3   392  ARG392     -0.1245
    108  CA         4.8530   46.6950   72.5780 C.3   392  ARG392      0.1563
    109  C          5.5040   45.6590   73.4800 C.2   392  ARG392      0.2260
    110  O          5.8950   45.9720   74.6010 O.2   392  ARG392     -0.2867
    111  CB         5.9480   47.4200   71.7820 C.3   392  ARG392      0.0307
    112  CG         5.4750   48.3130   70.6270 C.3   392  ARG392      0.0489
    113  CD         6.6780   48.9450   69.8790 C.3   392  ARG392      0.2205
    114  NE         6.2670   49.6570   68.6680 N.pl3 392  ARG392     -0.0865
    115  CZ         5.6520   50.8390   68.6490 C.cat 392  ARG392      0.5346
    116  NH1        5.3700   51.4770   69.7770 N.pl3 392  ARG392      0.1354
    117  NH2        5.2970   51.3740   67.4930 N.pl3 392  ARG392      0.1354
    118  N         -3.9900   49.1360   69.4000 N.3   413  LEU413     -0.1245
    119  CA        -3.9130   50.5560   69.6710 C.3   413  LEU413      0.1561
    120  C         -5.1640   51.1230   70.3320 C.2   413  LEU413      0.2260
    121  O         -6.2660   50.9780   69.8130 O.2   413  LEU413     -0.2867
    122  CB        -3.6570   51.3140   68.3740 C.3   413  LEU413      0.0270
    123  CG        -3.2270   52.7620   68.6080 C.3   413  LEU413      0.0019
    124  CD1       -1.7110   52.8060   68.7290 C.3   413  LEU413      0.0001
    125  CD2       -3.7020   53.6440   67.4710 C.3   413  LEU413      0.0001
    126  N          3.8480   53.1230   75.0330 N.3   445  ALA445     -0.1245
    127  CA         4.1140   54.4080   74.3980 C.3   445  ALA445      0.1562
    128  C          2.8450   55.2520   74.3380 C.2   445  ALA445      0.2260
    129  O          1.7650   54.7430   74.0670 O.2   445  ALA445     -0.2867
    130  CB         4.6610   54.1920   72.9970 C.3   445  ALA445      0.0290
    131  N          1.4600   58.6880   72.5020 N.3   447  LEU447     -0.1245
    132  CA         1.5920   59.8040   71.5700 C.3   447  LEU447      0.1561
    133  C          0.4370   60.7270   71.9390 C.2   447  LEU447      0.2260
    134  O         -0.7270   60.4190   71.6910 O.2   447  LEU447     -0.2867
    135  CB         1.4710   59.3040   70.1240 C.3   447  LEU447      0.0270
    136  CG         1.6670   60.2880   68.9580 C.3   447  LEU447      0.0019
    137  CD1        2.9860   61.0790   69.1090 C.3   447  LEU447      0.0001
    138  CD2        1.6510   59.5070   67.6520 C.3   447  LEU447      0.0001
    139  N          3.3210   68.6540   71.6430 N.3   455  ARG455     -0.1245
    140  CA         3.2160   67.2700   71.2180 C.3   455  ARG455      0.1563
    141  C          4.3090   66.4990   71.9600 C.2   455  ARG455      0.2260
    142  O          5.4930   66.8360   71.8620 O.2   455  ARG455     -0.2867
    143  CB         3.4250   67.1680   69.7050 C.3   455  ARG455      0.0307
    144  CG         3.0330   65.8330   69.1020 C.3   455  ARG455      0.0489
    145  CD         1.5160   65.6630   68.9760 C.3   455  ARG455      0.2205
    146  NE         1.1830   64.5180   68.1220 N.pl3 455  ARG455     -0.0865
    147  CZ        -0.0260   63.9730   68.0090 C.cat 455  ARG455      0.5346
    148  NH1       -1.0500   64.4610   68.6960 N.pl3 455  ARG455      0.1354
    149  NH2       -0.2060   62.9290   67.2100 N.pl3 455  ARG455      0.1354
    150  N          5.6280   62.4130   73.7560 N.3   457  ILE457     -0.1245
    151  CA         5.6190   60.9660   73.6800 C.3   457  ILE457      0.1561
    152  C          6.1070   60.5030   75.0420 C.2   457  ILE457      0.2260
    153  O          7.2340   60.7990   75.4100 O.2   457  ILE457     -0.2867
    154  CB         6.6080   60.4620   72.6130 C.3   457  ILE457      0.0252
    155  CG1        6.2540   61.0660   71.2540 C.3   457  ILE457      0.0019
    156  CG2        6.6000   58.9360   72.5600 C.3   457  ILE457      0.0019
    157  CD1        7.1650   60.6160   70.1230 C.3   457  ILE457      0.0001
@<TRIPOS>BOND
     1    70    68    1
     2    66    65    2
     3    69    68    1
     4    68    67    1
     5    67    64    1
     6    65    64    1
     7    64    63    1
     8    39    36    1
     9    39    40    1
    10    59    58    2
    11    36    35    1
    12    36    37    1
    13    43    41   ar
    14    40    41    1
    15    41    42   ar
    16    38    37    2
    17    63    58   am
    18    58    57    1
    19    37    44   am
    20    21    20    1
    21    20    22    1
    22    20    19    2
    23    18    19    1
    24    18    17    1
    25    61    60    1
    26    44    45    1
    27    17    16    1
    28    56    57    1
    29    56    46   am
    30    57    60    1
    31    60    62    1
    32    45    46    1
    33    45    48    1
    34    46    47    2
    35     4     3    2
    36    16    13    1
    37    12    13    1
    38    50    52   ar
    39    50    49   ar
    40    52    54   ar
    41    13    14    1
    42    48    49    1
    43     3     2    1
    44    11     9    1
    45    49    51   ar
    46   106   104    1
    47    88    86   ar
    48    54    55    1
    49    54    53   ar
    50    79    77   am
    51    51    53   ar
    52     5     2    1
    53     5     6    1
    54   105   104    1
    55     9     8    2
    56     9    10    1
    57   149   147    1
    58     8     7    1
    59   104   103    2
    60     2     1    1
    61   125   123    1
    62   117   115    1
    63    14    15    2
    64   138   136    1
    65    76    77    1
    66    76    75    1
    67    86    87   ar
    68    86    85    1
    69    71    72    1
    70    77    78    2
    71     6     7    1
    72   147   146    2
    73   147   148    1
    74   146   145    1
    75   103   102    1
    76   122   123    1
    77   122   119    1
    78   123   124    1
    79    85    84    1
    80   115   114    2
    81   115   116    1
    82   114   113    1
    83    75    72    1
    84   136   137    1
    85   136   135    1
    86    72    73    1
    87   145   144    1
    88   144   143    1
    89    94    93    1
    90    84    81    1
    91   102   101    1
    92   118   119    1
    93    34    33    1
    94    95    93    1
    95   119   120    1
    96   143   140    1
    97   121   120    2
    98   113   112    1
    99    93    90    1
   100    73    74    2
   101    83    82    2
   102   157   155    1
   103   135   132    1
   104    33    32   ar
   105    33    31   ar
   106    81    82    1
   107    81    80    1
   108    32    30   ar
   109   112   111    1
   110    31    29   ar
   111   101   100    1
   112   100    97    1
   113    30    28   ar
   114   140   139    1
   115   140   141    1
   116   155   154    1
   117    23    24    1
   118    29    28   ar
   119    90    89    1
   120    90    91    1
   121   132   133    1
   122   132   131    1
   123    24    25    1
   124    24    27    1
   125    28    27    1
   126   134   133    2
   127   111   108    1
   128   142   141    2
   129    91    92    2
   130    25    26    2
   131   156   154    1
   132   108   107    1
   133   108   109    1
   134   154   151    1
   135    97    96    1
   136    97    98    1
   137   130   127    1
   138   109   110    2
   139    98    99    2
   140   151   150    1
   141   151   152    1
   142   129   128    2
   143   128   127    1
   144   127   126    1
   145   152   153    2
