@<TRIPOS>MOLECULE
tmp/1pd0A00.pdb
 233 227 0 0 0
SMALL
GASTEIGER

@<TRIPOS>ATOM
      1  N        -19.9880   22.4430   50.6690 N.3   310  ARG310     -0.1245
      2  CA       -20.5240   23.0100   49.4350 C.3   310  ARG310      0.1563
      3  C        -21.7270   23.8910   49.7530 C.2   310  ARG310      0.2260
      4  O        -22.7180   23.4200   50.3190 O.2   310  ARG310     -0.2867
      5  CB       -20.9640   21.8980   48.4880 C.3   310  ARG310      0.0307
      6  CG       -19.8570   20.9560   48.0700 C.3   310  ARG310      0.0489
      7  CD       -20.3970   19.9050   47.1190 C.3   310  ARG310      0.2205
      8  NE       -19.3380   19.0540   46.5900 N.pl3 310  ARG310     -0.0865
      9  CZ       -19.5290   18.0880   45.6970 C.cat 310  ARG310      0.5346
     10  NH1      -20.7480   17.8460   45.2270 N.pl3 310  ARG310      0.1354
     11  NH2      -18.4990   17.3670   45.2670 N.pl3 310  ARG310      0.1354
     12  N         -7.7340   25.1710   41.5740 N.3   334  SER334     -0.1202
     13  CA        -8.4160   23.8900   41.4630 C.3   334  SER334      0.2020
     14  C         -9.6190   23.9370   40.5270 C.2   334  SER334      0.2619
     15  O        -10.1260   25.0120   40.1860 O.2   334  SER334     -0.2717
     16  CB        -8.8610   23.4290   42.8580 C.3   334  SER334      0.2103
     17  OG        -9.6430   22.2440   42.7970 O.3   334  SER334     -0.2182
     18  N        -10.0630   22.7590   40.1030 N.am  335  GLU335     -0.1965
     19  CA       -11.2320   22.6520   39.2350 C.3   335  GLU335      0.1733
     20  C        -12.4530   22.4900   40.1340 C.2   335  GLU335      0.2616
     21  O        -13.5880   22.5970   39.6820 O.2   335  GLU335     -0.2715
     22  CB       -11.1300   21.4310   38.3240 C.3   335  GLU335      0.0429
     23  CG        -9.9650   21.4470   37.3740 C.3   335  GLU335      0.1163
     24  CD        -9.9050   20.1880   36.5440 C.2   335  GLU335      0.3649
     25  OE1      -10.1420   19.1030   37.1120 O.co2 335  GLU335     -0.2457
     26  OE2       -9.6160   20.2750   35.3320 O.co2 335  GLU335     -0.2457
     27  N        -12.2090   22.2320   41.4130 N.am  336  ASP336     -0.1957
     28  CA       -13.3000   22.0480   42.3490 C.3   336  ASP336      0.1840
     29  C        -13.5520   23.2910   43.1890 C.2   336  ASP336      0.2622
     30  O        -12.6820   24.1630   43.3110 O.2   336  ASP336     -0.2715
     31  CB       -13.0100   20.8590   43.2660 C.3   336  ASP336      0.1450
     32  CG       -12.5840   19.6230   42.5000 C.2   336  ASP336      0.3671
     33  OD1      -13.2300   19.2910   41.4790 O.co2 336  ASP336     -0.2456
     34  OD2      -11.5980   18.9780   42.9290 O.co2 336  ASP336     -0.2456
     35  N        -14.7530   23.3520   43.7630 N.am  337  TYR337     -0.1974
     36  CA       -15.1790   24.4600   44.6070 C.3   337  TYR337      0.1639
     37  C        -14.1540   24.7150   45.6970 C.2   337  TYR337      0.2290
     38  O        -13.7220   23.7840   46.3780 O.2   337  TYR337     -0.2864
     39  CB       -16.5250   24.1290   45.2340 C.3   337  TYR337      0.0560
     40  CG       -17.0280   25.1630   46.2020 C.ar  337  TYR337     -0.0198
     41  CD1      -17.3200   26.4620   45.7820 C.ar  337  TYR337     -0.0009
     42  CD2      -17.2340   24.8390   47.5460 C.ar  337  TYR337     -0.0009
     43  CE1      -17.8080   27.4140   46.6810 C.ar  337  TYR337      0.0417
     44  CE2      -17.7220   25.7890   48.4510 C.ar  337  TYR337      0.0417
     45  CZ       -18.0040   27.0680   48.0070 C.ar  337  TYR337      0.1957
     46  OH       -18.4680   28.0040   48.8930 O.3   337  TYR337     -0.2866
     47  N         -6.7680   33.4490   42.7570 N.3   356  PHE356     -0.1241
     48  CA        -7.5800   32.3080   42.3770 C.3   356  PHE356      0.1605
     49  C         -7.3070   31.8040   40.9720 C.2   356  PHE356      0.2264
     50  O         -7.3310   32.5700   40.0170 O.2   356  PHE356     -0.2867
     51  CB        -9.0500   32.7060   42.5350 C.3   356  PHE356      0.0534
     52  CG       -10.0230   31.6190   42.1960 C.ar  356  PHE356     -0.0203
     53  CD1       -9.8200   30.3180   42.6410 C.ar  356  PHE356     -0.0042
     54  CD2      -11.1690   31.9080   41.4550 C.ar  356  PHE356     -0.0042
     55  CE1      -10.7460   29.3190   42.3470 C.ar  356  PHE356     -0.0003
     56  CE2      -12.1000   30.9130   41.1600 C.ar  356  PHE356     -0.0003
     57  CZ       -11.8850   29.6220   41.6050 C.ar  356  PHE356     -0.0000
     58  N         -8.9710   29.3500   38.6650 N.3   358  PRO358     -0.2102
     59  CA       -10.0940   28.5370   38.1930 C.3   358  PRO358      0.1504
     60  C         -9.6970   27.4420   37.2140 C.2   358  PRO358      0.2576
     61  O         -9.0180   27.6990   36.2330 O.2   358  PRO358     -0.2718
     62  CB       -11.0100   29.5640   37.5290 C.3   358  PRO358      0.0282
     63  CG       -10.7530   30.7960   38.2980 C.3   358  PRO358      0.0208
     64  CD        -9.2620   30.7840   38.5030 C.3   358  PRO358      0.0893
     65  N        -10.1380   26.2230   37.4820 N.am  359  GLY359     -0.1957
     66  CA        -9.8490   25.1190   36.5850 C.3   359  GLY359      0.1869
     67  C         -8.3970   24.7250   36.4050 C.2   359  GLY359      0.2309
     68  O         -8.0690   23.9820   35.4780 O.2   359  GLY359     -0.2863
     69  N        -18.0740   41.1290   36.2120 N.3   547  MET547     -0.1245
     70  CA       -18.3420   39.8140   36.7680 C.3   547  MET547      0.1570
     71  C        -18.6050   39.8810   38.2690 C.2   547  MET547      0.2261
     72  O        -19.2350   38.9950   38.8340 O.2   547  MET547     -0.2867
     73  CB       -17.1570   38.9010   36.4810 C.3   547  MET547      0.0387
     74  CG       -17.1870   37.5560   37.1690 C.3   547  MET547      0.0595
     75  SD       -15.7430   36.6010   36.6530 S.3   547  MET547     -0.1393
     76  CE       -16.1050   36.4130   34.9380 C.3   547  MET547      0.0692
     77  N        -22.4060   41.8210   38.0090 N.3   550  ARG550     -0.1245
     78  CA       -23.3530   41.3710   36.9940 C.3   550  ARG550      0.1563
     79  C        -24.6290   40.8210   37.5880 C.2   550  ARG550      0.2260
     80  O        -24.6520   40.3560   38.7230 O.2   550  ARG550     -0.2867
     81  CB       -22.7730   40.2340   36.1600 C.3   550  ARG550      0.0307
     82  CG       -21.8900   40.5930   35.0070 C.3   550  ARG550      0.0489
     83  CD       -21.5050   39.2980   34.3020 C.3   550  ARG550      0.2205
     84  NE       -20.3160   39.4500   33.4760 N.pl3 550  ARG550     -0.0865
     85  CZ       -19.4120   38.4920   33.2910 C.cat 550  ARG550      0.5346
     86  NH1      -19.5600   37.3090   33.8810 N.pl3 550  ARG550      0.1354
     87  NH2      -18.3580   38.7180   32.5130 N.pl3 550  ARG550      0.1354
     88  N        -26.2820   34.7870   36.3060 N.3   553  ILE553     -0.1231
     89  CA       -25.4610   33.7280   36.8740 C.3   553  ILE553      0.1692
     90  C        -23.9480   33.8040   36.6610 C.2   553  ILE553      0.2592
     91  O        -23.4570   33.9620   35.5400 O.2   553  ILE553     -0.2718
     92  CB       -25.9610   32.3390   36.3860 C.3   553  ILE553      0.0266
     93  CG1      -27.2560   31.9720   37.1200 C.3   553  ILE553      0.0019
     94  CG2      -24.8870   31.2720   36.6130 C.3   553  ILE553      0.0020
     95  CD1      -27.7650   30.5680   36.8090 C.3   553  ILE553      0.0001
     96  N        -23.2290   33.6650   37.7710 N.am  554  VAL554     -0.1966
     97  CA       -21.7710   33.6690   37.7990 C.3   554  VAL554      0.1712
     98  C        -21.3430   32.7340   38.9250 C.2   554  VAL554      0.2458
     99  O        -21.7460   32.9070   40.0770 O.2   554  VAL554     -0.2730
    100  CB       -21.2130   35.0770   38.0830 C.3   554  VAL554      0.0289
    101  CG1      -19.7190   34.9950   38.3920 C.3   554  VAL554      0.0023
    102  CG2      -21.4600   35.9780   36.8820 C.3   554  VAL554      0.0023
    103  N        -20.5300   31.7220   38.6040 N.am  555  PRO555     -0.2716
    104  CA       -20.0720   30.7760   39.6220 C.3   555  PRO555      0.1536
    105  C        -19.6240   31.4800   40.8970 C.2   555  PRO555      0.2599
    106  O        -18.9960   32.5310   40.8590 O.2   555  PRO555     -0.2715
    107  CB       -18.9490   30.0410   38.9150 C.3   555  PRO555      0.0310
    108  CG       -19.4660   29.9680   37.5140 C.3   555  PRO555      0.0237
    109  CD       -19.9870   31.3730   37.2800 C.3   555  PRO555      0.0939
    110  N        -19.9650   30.8910   42.0290 N.am  556  SER556     -0.1936
    111  CA       -19.6370   31.4590   43.3210 C.3   556  SER556      0.2055
    112  C        -18.1740   31.8850   43.4680 C.2   556  SER556      0.2643
    113  O        -17.8990   33.0290   43.8160 O.2   556  SER556     -0.2714
    114  CB       -20.0160   30.4680   44.4260 C.3   556  SER556      0.2130
    115  OG       -19.9380   31.0840   45.7000 O.3   556  SER556     -0.2179
    116  N        -17.2390   30.9780   43.2080 N.am  557  ASP557     -0.1957
    117  CA       -15.8280   31.3110   43.3390 C.3   557  ASP557      0.1840
    118  C        -15.3960   32.4670   42.4180 C.2   557  ASP557      0.2622
    119  O        -14.6860   33.3730   42.8550 O.2   557  ASP557     -0.2715
    120  CB       -14.9570   30.0710   43.0760 C.3   557  ASP557      0.1450
    121  CG       -14.8870   29.1180   44.2760 C.2   557  ASP557      0.3671
    122  OD1      -15.2240   29.5190   45.4130 O.co2 557  ASP557     -0.2456
    123  OD2      -14.4690   27.9570   44.0790 O.co2 557  ASP557     -0.2456
    124  N        -15.8130   32.4440   41.1520 N.am  558  HIS558     -0.1973
    125  CA       -15.4440   33.5190   40.2310 C.3   558  HIS558      0.1656
    126  C        -15.8760   34.8550   40.7940 C.2   558  HIS558      0.2291
    127  O        -15.0930   35.8010   40.8600 O.2   558  HIS558     -0.2864
    128  CB       -16.1010   33.3380   38.8600 C.3   558  HIS558      0.0771
    129  CG       -15.4430   32.3020   38.0030 C.ar  558  HIS558      0.0820
    130  ND1      -15.6470   30.9500   38.1770 N.ar  558  HIS558     -0.2267
    131  CD2      -14.5660   32.4210   36.9770 C.ar  558  HIS558      0.1154
    132  CE1      -14.9240   30.2800   37.2950 C.ar  558  HIS558      0.1986
    133  NE2      -14.2590   31.1490   36.5550 N.ar  558  HIS558     -0.2212
    134  N         -7.2180   28.7030   25.3800 N.3   655  LYS655     -0.1245
    135  CA        -6.0620   29.2090   26.1010 C.3   655  LYS655      0.1561
    136  C         -4.7940   28.6880   25.4370 C.2   655  LYS655      0.2260
    137  O         -4.3130   27.6050   25.7640 O.2   655  LYS655     -0.2867
    138  CB        -6.1200   28.7590   27.5670 C.3   655  LYS655      0.0271
    139  CG        -5.0650   29.4050   28.4500 C.3   655  LYS655      0.0035
    140  CD        -4.9870   28.7530   29.8340 C.3   655  LYS655      0.0206
    141  CE        -6.2820   28.9080   30.6290 C.3   655  LYS655      0.1093
    142  NZ        -6.1110   28.3510   31.9930 N.3   655  LYS655     -0.1314
    143  N         -6.3950   34.0740   25.3040 N.3   690  TYR690     -0.1241
    144  CA        -7.4860   33.2560   24.7830 C.3   690  TYR690      0.1605
    145  C         -7.7300   33.6500   23.3340 C.2   690  TYR690      0.2264
    146  O         -8.0220   34.8180   23.0260 O.2   690  TYR690     -0.2867
    147  CB        -8.7700   33.4400   25.6090 C.3   690  TYR690      0.0534
    148  CG        -8.6090   33.0010   27.0430 C.ar  690  TYR690     -0.0201
    149  CD1       -8.1510   33.8890   28.0050 C.ar  690  TYR690     -0.0009
    150  CD2       -8.8170   31.6700   27.4190 C.ar  690  TYR690     -0.0009
    151  CE1       -7.8930   33.4740   29.3060 C.ar  690  TYR690      0.0417
    152  CE2       -8.5580   31.2430   28.7200 C.ar  690  TYR690      0.0417
    153  CZ        -8.0940   32.1620   29.6590 C.ar  690  TYR690      0.1957
    154  OH        -7.8240   31.7880   30.9510 O.3   690  TYR690     -0.2866
    155  N        -18.6260   23.8260   20.7800 N.3   697  ARG697     -0.1231
    156  CA       -19.3040   24.4440   21.9120 C.3   697  ARG697      0.1694
    157  C        -18.3490   25.3740   22.6470 C.2   697  ARG697      0.2591
    158  O        -18.7240   26.4710   23.0680 O.2   697  ARG697     -0.2718
    159  CB       -19.8230   23.3620   22.8540 C.3   697  ARG697      0.0321
    160  CG       -20.8630   22.4600   22.2040 C.3   697  ARG697      0.0489
    161  CD       -21.4980   21.5230   23.2140 C.3   697  ARG697      0.2205
    162  NE       -22.7500   20.9630   22.7140 N.pl3 697  ARG697     -0.0865
    163  CZ       -23.5980   20.2580   23.4560 C.cat 697  ARG697      0.5346
    164  NH1      -23.3250   20.0270   24.7340 N.pl3 697  ARG697      0.1354
    165  NH2      -24.7230   19.7910   22.9260 N.pl3 697  ARG697      0.1354
    166  N        -17.1110   24.9220   22.8020 N.am  698  GLU698     -0.1979
    167  CA       -16.0810   25.7140   23.4510 C.3   698  GLU698      0.1602
    168  C        -15.9650   27.0490   22.7160 C.2   698  GLU698      0.2287
    169  O        -15.8140   28.0990   23.3410 O.2   698  GLU698     -0.2864
    170  CB       -14.7460   24.9640   23.4040 C.3   698  GLU698      0.0415
    171  CG       -13.5220   25.8500   23.5210 C.3   698  GLU698      0.1163
    172  CD       -12.2290   25.0590   23.5730 C.2   698  GLU698      0.3649
    173  OE1      -12.0630   24.1300   22.7520 O.co2 698  GLU698     -0.2457
    174  OE2      -11.3750   25.3760   24.4310 O.co2 698  GLU698     -0.2457
    175  N        -18.7010   29.2930   23.8100 N.3   701  THR701     -0.1203
    176  CA       -18.4570   29.7150   25.1810 C.3   701  THR701      0.1994
    177  C        -17.4120   30.8270   25.2620 C.2   701  THR701      0.2617
    178  O        -17.5120   31.7160   26.1070 O.2   701  THR701     -0.2717
    179  CB       -17.9910   28.5280   26.0470 C.3   701  THR701      0.1784
    180  OG1      -18.9230   27.4480   25.9250 O.3   701  THR701     -0.2211
    181  CG2      -17.9130   28.9340   27.5020 C.3   701  THR701      0.0376
    182  N        -16.4100   30.7730   24.3880 N.am  702  LEU702     -0.1979
    183  CA       -15.3510   31.7800   24.3650 C.3   702  LEU702      0.1596
    184  C        -15.8690   33.0760   23.7730 C.2   702  LEU702      0.2287
    185  O        -15.6010   34.1570   24.2920 O.2   702  LEU702     -0.2864
    186  CB       -14.1600   31.2890   23.5410 C.3   702  LEU702      0.0297
    187  CG       -13.3110   30.1760   24.1610 C.3   702  LEU702      0.0022
    188  CD1      -12.4610   29.4980   23.0940 C.3   702  LEU702      0.0001
    189  CD2      -12.4410   30.7680   25.2520 C.3   702  LEU702      0.0001
    190  N        -18.7120   34.1030   23.8630 N.3   704  LEU704     -0.1231
    191  CA       -19.5770   34.6270   24.9040 C.3   704  LEU704      0.1693
    192  C        -18.7580   35.4040   25.9320 C.2   704  LEU704      0.2592
    193  O        -19.0910   36.5340   26.2780 O.2   704  LEU704     -0.2718
    194  CB       -20.3100   33.4630   25.5840 C.3   704  LEU704      0.0284
    195  CG       -21.7030   33.7230   26.1610 C.3   704  LEU704      0.0019
    196  CD1      -22.6740   33.9820   25.0100 C.3   704  LEU704      0.0001
    197  CD2      -22.1600   32.5240   26.9860 C.3   704  LEU704      0.0001
    198  N        -17.6790   34.7940   26.4060 N.am  705  TRP705     -0.1976
    199  CA       -16.8220   35.4150   27.4040 C.3   705  TRP705      0.1640
    200  C        -16.1410   36.6710   26.8780 C.2   705  TRP705      0.2290
    201  O        -16.1540   37.7230   27.5330 O.2   705  TRP705     -0.2864
    202  CB       -15.7630   34.4180   27.8840 C.3   705  TRP705      0.0576
    203  CG       -14.9570   34.9210   29.0420 C.ar  705  TRP705      0.0006
    204  CD1      -15.2750   35.9580   29.8680 C.ar  705  TRP705      0.0946
    205  CD2      -13.7260   34.3810   29.5340 C.ar  705  TRP705      0.0152
    206  NE1      -14.3250   36.0970   30.8420 N.ar  705  TRP705     -0.2442
    207  CE2      -13.3600   35.1440   30.6640 C.ar  705  TRP705      0.0810
    208  CE3      -12.8950   33.3260   29.1300 C.ar  705  TRP705      0.0012
    209  CZ2      -12.1960   34.8890   31.4020 C.ar  705  TRP705      0.0191
    210  CZ3      -11.7290   33.0700   29.8660 C.ar  705  TRP705      0.0001
    211  CH2      -11.3950   33.8520   30.9890 C.ar  705  TRP705      0.0015
    212  N        -18.5800   39.5010   26.4850 N.3   708  SER708     -0.1217
    213  CA       -18.9390   40.1570   27.7290 C.3   708  SER708      0.1889
    214  C        -17.9680   41.2670   28.1100 C.2   708  SER708      0.2288
    215  O        -18.3040   42.1200   28.9260 O.2   708  SER708     -0.2866
    216  CB       -19.0180   39.1400   28.8720 C.3   708  SER708      0.2089
    217  OG       -17.7320   38.6860   29.2600 O.3   708  SER708     -0.2183
    218  N        -26.2390   43.3770   26.9510 N.3   715  ILE715     -0.1231
    219  CA       -26.0230   41.9690   27.2530 C.3   715  ILE715      0.1692
    220  C        -27.2120   41.3030   27.9270 C.2   715  ILE715      0.2591
    221  O        -27.5030   41.5750   29.0920 O.2   715  ILE715     -0.2718
    222  CB       -24.8100   41.7930   28.1550 C.3   715  ILE715      0.0266
    223  CG1      -23.5910   42.4060   27.4720 C.3   715  ILE715      0.0019
    224  CG2      -24.5920   40.3090   28.4650 C.3   715  ILE715      0.0020
    225  CD1      -22.3210   42.2510   28.2480 C.3   715  ILE715      0.0001
    226  N        -27.9020   40.4350   27.1930 N.am  716  LEU716     -0.1980
    227  CA       -29.0450   39.7450   27.7650 C.3   716  LEU716      0.1596
    228  C        -30.1310   40.7880   28.1310 C.2   716  LEU716      0.2287
    229  O        -30.9140   41.1930   27.2640 O.2   716  LEU716     -0.2864
    230  CB       -28.5770   38.9480   29.0030 C.3   716  LEU716      0.0297
    231  CG       -27.4160   37.9370   28.8820 C.3   716  LEU716      0.0022
    232  CD1      -27.1950   37.2630   30.2340 C.3   716  LEU716      0.0001
    233  CD2      -27.7140   36.8910   27.8230 C.3   716  LEU716      0.0001
@<TRIPOS>BOND
     1   155   156    1
     2   156   157    1
     3   156   159    1
     4   160   159    1
     5   160   161    1
     6   157   166   am
     7   157   158    2
     8   162   161    1
     9   162   163    2
    10   168   169    2
    11   168   167    1
    12   173   172   ar
    13   166   167    1
    14   165   163    1
    15   146   145    2
    16   188   187    1
    17   145   144    1
    18   170   167    1
    19   170   171    1
    20   163   164    1
    21   171   172    1
    22   186   187    1
    23   186   183    1
    24   172   174   ar
    25   184   185    2
    26   184   183    1
    27   175   176    1
    28   190   191    1
    29   187   189    1
    30   183   182    1
    31   182   177   am
    32   144   143    1
    33   144   147    1
    34   191   194    1
    35   191   192    1
    36   196   195    1
    37   176   177    1
    38   176   179    1
    39   177   178    2
    40   134   135    1
    41   136   137    2
    42   136   135    1
    43   194   195    1
    44   147   148    1
    45   180   179    1
    46   192   193    2
    47   192   198   am
    48   179   181    1
    49   135   138    1
    50   195   197    1
    51   198   199    1
    52   212   213    1
    53   200   199    1
    54   200   201    2
    55   218   219    1
    56   148   150   ar
    57   148   149   ar
    58   226   227    1
    59   226   220   am
    60   219   220    1
    61   219   222    1
    62   229   228    2
    63   199   202    1
    64   150   152   ar
    65   223   222    1
    66   223   225    1
    67   138   139    1
    68   213   214    1
    69   213   216    1
    70   227   228    1
    71   227   230    1
    72   233   231    1
    73   202   203    1
    74   220   221    2
    75   149   151   ar
    76   214   215    2
    77   222   224    1
    78   139   140    1
    79   152   153   ar
    80   216   217    1
    81   231   230    1
    82   231   232    1
    83   203   205   ar
    84   203   204   ar
    85   208   205   ar
    86   208   210   ar
    87   151   153   ar
    88   205   207   ar
    89   153   154    1
    90   140   141    1
    91   210   211   ar
    92   204   206   ar
    93   141   142    1
    94   207   206   ar
    95   207   209   ar
    96   211   209   ar
    97    87    85    1
    98    85    84    2
    99    85    86    1
   100    84    83    1
   101    83    82    1
   102    76    75    1
   103    82    81    1
   104    26    24   ar
   105    68    67    2
   106    91    90    2
   107    81    78    1
   108    69    70    1
   109    61    60    2
   110    88    89    1
   111    92    94    1
   112    92    89    1
   113    92    93    1
   114    67    66    1
   115    73    70    1
   116    73    74    1
   117    24    25   ar
   118    24    23    1
   119   133   131   ar
   120   133   132   ar
   121    66    65    1
   122    75    74    1
   123    90    89    1
   124    90    96   am
   125    70    71    1
   126    95    93    1
   127   102   100    1
   128   131   129   ar
   129    78    79    1
   130    78    77    1
   131    60    65   am
   132    60    59    1
   133   109   108    1
   134   109   103    1
   135   132   130   ar
   136    23    22    1
   137   108   107    1
   138    62    59    1
   139    62    63    1
   140    79    80    2
   141    96    97    1
   142    97   100    1
   143    97    98    1
   144   129   130   ar
   145   129   128    1
   146   100   101    1
   147    59    58    1
   148    71    72    2
   149    63    64    1
   150    22    19    1
   151    64    58    1
   152   103    98   am
   153   103   104    1
   154   128   125    1
   155   107   104    1
   156    98    99    2
   157    19    18    1
   158    19    20    1
   159   104   105    1
   160    21    20    2
   161    50    49    2
   162    18    14   am
   163    20    27   am
   164    15    14    2
   165   125   126    1
   166   125   124    1
   167    14    13    1
   168   126   127    2
   169   106   105    2
   170   105   110   am
   171    49    48    1
   172   124   118   am
   173    56    54   ar
   174    56    57   ar
   175    27    28    1
   176    54    52   ar
   177    13    12    1
   178    13    16    1
   179    33    32   ar
   180    57    55   ar
   181   110   111    1
   182    52    51    1
   183    52    53   ar
   184    55    53   ar
   185    28    29    1
   186    28    31    1
   187    48    51    1
   188    48    47    1
   189   118   119    2
   190   118   117    1
   191    32    34   ar
   192    32    31    1
   193    17    16    1
   194   120   117    1
   195   120   121    1
   196    29    30    2
   197    29    35   am
   198   116   117    1
   199   116   112   am
   200   111   112    1
   201   111   114    1
   202   112   113    2
   203    35    36    1
   204   123   121   ar
   205   121   122   ar
   206   114   115    1
   207    36    39    1
   208    36    37    1
   209    10     9    1
   210    39    40    1
   211    11     9    1
   212    37    38    2
   213     9     8    2
   214    41    40   ar
   215    41    43   ar
   216    40    42   ar
   217     8     7    1
   218    43    45   ar
   219     7     6    1
   220    42    44   ar
   221    45    44   ar
   222    45    46    1
   223     6     5    1
   224     5     2    1
   225     2     3    1
   226     2     1    1
   227     3     4    2
