@<TRIPOS>MOLECULE
tmp/1pd1A00.pdb
 169 158 0 0 0
SMALL
GASTEIGER

@<TRIPOS>ATOM
      1  N          7.4610   66.7290   65.6160 N.3    98  ARG98      -0.1245
      2  CA         6.0170   66.5270   65.6460 C.3    98  ARG98       0.1563
      3  C          5.2890   67.5130   66.5440 C.2    98  ARG98       0.2260
      4  O          5.8220   67.9520   67.5580 O.2    98  ARG98      -0.2867
      5  CB         5.7000   65.1270   66.1510 C.3    98  ARG98       0.0307
      6  CG         6.1790   64.0160   65.2760 C.3    98  ARG98       0.0489
      7  CD         5.0320   63.0580   65.0810 C.3    98  ARG98       0.2205
      8  NE         5.2110   61.8120   65.8040 N.pl3  98  ARG98      -0.0865
      9  CZ         4.2910   60.8580   65.8690 C.cat  98  ARG98       0.5346
     10  NH1        3.1180   61.0120   65.2650 N.pl3  98  ARG98       0.1354
     11  NH2        4.5620   59.7330   66.5130 N.pl3  98  ARG98       0.1354
     12  N          0.2430   68.5060   70.2840 N.3   101  ARG101     -0.1245
     13  CA        -1.1620   68.1240   70.4300 C.3   101  ARG101      0.1563
     14  C         -1.7570   67.0830   69.4750 C.2   101  ARG101      0.2260
     15  O         -2.3140   66.0910   69.9350 O.2   101  ARG101     -0.2867
     16  CB        -2.0560   69.3660   70.4030 C.3   101  ARG101      0.0307
     17  CG        -3.5400   69.0280   70.3080 C.3   101  ARG101      0.0489
     18  CD        -4.4060   70.2480   70.5330 C.3   101  ARG101      0.2205
     19  NE        -3.9750   71.3940   69.7370 N.pl3 101  ARG101     -0.0865
     20  CZ        -4.5790   72.5770   69.7650 C.cat 101  ARG101      0.5346
     21  NH1       -5.6370   72.7580   70.5470 N.pl3 101  ARG101      0.1354
     22  NH2       -4.1220   73.5810   69.0270 N.pl3 101  ARG101      0.1354
     23  N          0.0070   65.4580   67.0200 N.3   103  ARG103     -0.1245
     24  CA         1.0480   64.4830   66.6720 C.3   103  ARG103      0.1563
     25  C          1.4100   64.4130   65.1860 C.2   103  ARG103      0.2260
     26  O          2.1170   63.4980   64.7490 O.2   103  ARG103     -0.2867
     27  CB         0.6510   63.0870   67.1700 C.3   103  ARG103      0.0307
     28  CG         0.1500   63.0680   68.6090 C.3   103  ARG103      0.0489
     29  CD         1.1500   63.7300   69.5380 C.3   103  ARG103      0.2205
     30  NE         2.3750   62.9510   69.6750 N.pl3 103  ARG103     -0.0865
     31  CZ         3.5910   63.4810   69.7330 C.cat 103  ARG103      0.5346
     32  NH1        3.7510   64.7960   69.6580 N.pl3 103  ARG103      0.1354
     33  NH2        4.6490   62.6940   69.8770 N.pl3 103  ARG103      0.1354
     34  N          3.2360   65.2940   61.6570 N.3   105  TYR105     -0.1241
     35  CA         4.6570   65.4460   61.3880 C.3   105  TYR105      0.1605
     36  C          4.9910   66.6980   60.6070 C.2   105  TYR105      0.2264
     37  O          4.2160   67.1350   59.7530 O.2   105  TYR105     -0.2867
     38  CB         5.1880   64.2410   60.6050 C.3   105  TYR105      0.0534
     39  CG         5.0630   62.9140   61.3170 C.ar  105  TYR105     -0.0201
     40  CD1        3.8230   62.2870   61.4490 C.ar  105  TYR105     -0.0009
     41  CD2        6.1920   62.2670   61.8330 C.ar  105  TYR105     -0.0009
     42  CE1        3.7050   61.0450   62.0710 C.ar  105  TYR105      0.0417
     43  CE2        6.0880   61.0200   62.4640 C.ar  105  TYR105      0.0417
     44  CZ         4.8380   60.4140   62.5800 C.ar  105  TYR105      0.1957
     45  OH         4.7130   59.1930   63.2130 O.3   105  TYR105     -0.2866
     46  N         12.0420   54.7150   70.5610 N.3   158  GLU158     -0.1231
     47  CA        10.7010   54.7820   71.1450 C.3   158  GLU158      0.1699
     48  C          9.5260   54.4620   70.2200 C.2   158  GLU158      0.2592
     49  O          8.3730   54.5440   70.6410 O.2   158  GLU158     -0.2718
     50  CB        10.4580   56.1430   71.8160 C.3   158  GLU158      0.0402
     51  CG        10.6330   57.3480   70.9140 C.3   158  GLU158      0.1161
     52  CD        12.0870   57.6980   70.6930 C.2   158  GLU158      0.3649
     53  OE1       12.3550   58.6590   69.9390 O.co2 158  GLU158     -0.2457
     54  OE2       12.9600   57.0160   71.2800 O.co2 158  GLU158     -0.2457
     55  N          9.7990   54.1150   68.9640 N.am  159  TYR159     -0.1962
     56  CA         8.7250   53.7410   68.0440 C.3   159  TYR159      0.1771
     57  C          8.7320   52.2210   67.9010 C.2   159  TYR159      0.2620
     58  O          8.0340   51.6620   67.0540 O.2   159  TYR159     -0.2715
     59  CB         8.9110   54.3710   66.6610 C.3   159  TYR159      0.0574
     60  CG         8.5780   55.8460   66.5840 C.ar  159  TYR159     -0.0198
     61  CD1        9.5270   56.8160   66.9100 C.ar  159  TYR159     -0.0009
     62  CD2        7.3200   56.2720   66.1590 C.ar  159  TYR159     -0.0009
     63  CE1        9.2350   58.1680   66.8070 C.ar  159  TYR159      0.0417
     64  CE2        7.0160   57.6250   66.0560 C.ar  159  TYR159      0.0417
     65  CZ         7.9780   58.5690   66.3790 C.ar  159  TYR159      0.1957
     66  OH         7.6910   59.9100   66.2630 O.3   159  TYR159     -0.2866
     67  N          9.5290   51.5640   68.7430 N.am  160  THR160     -0.1937
     68  CA         9.6600   50.1060   68.7300 C.3   160  THR160      0.2028
     69  C          9.6410   49.5220   70.1380 C.2   160  THR160      0.2642
     70  O         10.0940   50.1540   71.0900 O.2   160  THR160     -0.2714
     71  CB        10.9900   49.6670   68.0930 C.3   160  THR160      0.1808
     72  OG1       12.0370   49.7930   69.0620 O.3   160  THR160     -0.2208
     73  CG2       11.3340   50.5450   66.9030 C.3   160  THR160      0.0379
     74  N          9.1300   48.3040   70.2610 N.am  161  LEU161     -0.1977
     75  CA         9.0730   47.6240   71.5470 C.3   161  LEU161      0.1596
     76  C         10.0080   46.4260   71.5280 C.2   161  LEU161      0.2287
     77  O         10.5650   46.0450   72.5550 O.2   161  LEU161     -0.2864
     78  CB         7.6470   47.1720   71.8580 C.3   161  LEU161      0.0297
     79  CG         6.6860   48.3080   72.2170 C.3   161  LEU161      0.0022
     80  CD1        5.2850   47.7560   72.4220 C.3   161  LEU161      0.0001
     81  CD2        7.1840   49.0130   73.4770 C.3   161  LEU161      0.0001
     82  N          1.6310   49.7150   61.0680 N.3   388  VAL388     -0.1245
     83  CA         0.3460   50.3310   61.3770 C.3   388  VAL388      0.1561
     84  C          0.2640   51.6070   60.5560 C.2   388  VAL388      0.2260
     85  O          1.2620   52.3060   60.3770 O.2   388  VAL388     -0.2867
     86  CB         0.1970   50.6870   62.8630 C.3   388  VAL388      0.0252
     87  CG1        0.2500   49.4330   63.6920 C.3   388  VAL388      0.0019
     88  CG2        1.2750   51.6750   63.2780 C.3   388  VAL388      0.0019
     89  N         -2.1760   55.1990   59.6920 N.3   390  ARG390     -0.1245
     90  CA        -3.2460   56.0910   60.1080 C.3   390  ARG390      0.1563
     91  C         -3.1400   57.3740   59.3090 C.2   390  ARG390      0.2260
     92  O         -2.0670   57.7060   58.7950 O.2   390  ARG390     -0.2867
     93  CB        -3.1210   56.3850   61.6050 C.3   390  ARG390      0.0307
     94  CG        -2.9980   57.8500   61.9670 C.3   390  ARG390      0.0489
     95  CD        -2.6230   58.0150   63.4300 C.3   390  ARG390      0.2205
     96  NE        -3.5590   57.3310   64.3190 N.pl3 390  ARG390     -0.0865
     97  CZ        -3.2040   56.7030   65.4400 C.cat 390  ARG390      0.5346
     98  NH1       -1.9320   56.6720   65.8100 N.pl3 390  ARG390      0.1354
     99  NH2       -4.1160   56.0930   66.1860 N.pl3 390  ARG390      0.1354
    100  N         -4.1010   61.5240   59.4890 N.3   392  ARG392     -0.1245
    101  CA        -4.5080   62.6370   60.3440 C.3   392  ARG392      0.1563
    102  C         -5.0590   63.7490   59.4460 C.2   392  ARG392      0.2260
    103  O         -4.4320   64.1370   58.4510 O.2   392  ARG392     -0.2867
    104  CB        -3.3230   63.1740   61.1560 C.3   392  ARG392      0.0307
    105  CG        -2.8290   62.2530   62.2660 C.3   392  ARG392      0.0489
    106  CD        -1.7280   62.9180   63.1120 C.3   392  ARG392      0.2205
    107  NE        -1.2820   62.0540   64.2060 N.pl3 392  ARG392     -0.0865
    108  CZ        -0.4770   61.0030   64.0550 C.cat 392  ARG392      0.5346
    109  NH1       -0.0140   60.6830   62.8550 N.pl3 392  ARG392      0.1354
    110  NH2       -0.1510   60.2500   65.1000 N.pl3 392  ARG392      0.1354
    111  N        -11.9420   49.2870   66.1560 N.3   410  SER410     -0.1202
    112  CA       -12.6860   50.4460   66.6160 C.3   410  SER410      0.2020
    113  C        -11.7840   51.6440   66.7770 C.2   410  SER410      0.2619
    114  O        -11.9270   52.4100   67.7260 O.2   410  SER410     -0.2717
    115  CB       -13.3600   50.1390   67.9570 C.3   410  SER410      0.2103
    116  OG       -14.1050   48.9340   67.9010 O.3   410  SER410     -0.2182
    117  N        -10.8440   51.8110   65.8610 N.am  411  SER411     -0.1951
    118  CA        -9.9470   52.9430   65.9630 C.3   411  SER411      0.1924
    119  C         -9.7160   53.5390   64.6000 C.2   411  SER411      0.2314
    120  O        -10.3410   53.1380   63.6250 O.2   411  SER411     -0.2863
    121  CB        -8.6120   52.5160   66.5730 C.3   411  SER411      0.2116
    122  OG        -7.9720   51.5630   65.7550 O.3   411  SER411     -0.2180
    123  N         -6.7700   53.4530   63.4870 N.3   413  LEU413     -0.1245
    124  CA        -5.5210   52.8010   63.1560 C.3   413  LEU413      0.1561
    125  C         -5.7090   51.4840   62.4190 C.2   413  LEU413      0.2260
    126  O         -6.4520   50.6080   62.8730 O.2   413  LEU413     -0.2867
    127  CB        -4.7110   52.5510   64.4280 C.3   413  LEU413      0.0270
    128  CG        -3.2640   52.1170   64.1960 C.3   413  LEU413      0.0019
    129  CD1       -2.4490   53.3210   63.7680 C.3   413  LEU413      0.0001
    130  CD2       -2.6880   51.5190   65.4620 C.3   413  LEU413      0.0001
    131  N          0.4950   58.3970   57.8650 N.3   445  ALA445     -0.1231
    132  CA         1.7010   57.9860   58.5580 C.3   445  ALA445      0.1694
    133  C          1.7490   56.4660   58.6290 C.2   445  ALA445      0.2592
    134  O          0.7590   55.8160   58.9810 O.2   445  ALA445     -0.2718
    135  CB         1.7280   58.5770   59.9590 C.3   445  ALA445      0.0304
    136  N          2.8960   55.8990   58.2700 N.am  446  VAL446     -0.1966
    137  CA         3.0640   54.4540   58.3230 C.3   446  VAL446      0.1727
    138  C          4.2920   54.0920   59.1410 C.2   446  VAL446      0.2616
    139  O          5.4300   54.3680   58.7360 O.2   446  VAL446     -0.2715
    140  CB         3.2020   53.8350   56.9110 C.3   446  VAL446      0.0290
    141  CG1        3.4560   52.3410   57.0270 C.3   446  VAL446      0.0023
    142  CG2        1.9340   54.0820   56.1070 C.3   446  VAL446      0.0023
    143  N          4.0360   53.5140   60.3150 N.am  447  LEU447     -0.1977
    144  CA         5.0860   53.0630   61.2250 C.3   447  LEU447      0.1596
    145  C          5.2440   51.6030   60.8270 C.2   447  LEU447      0.2287
    146  O          4.2980   50.8120   60.9200 O.2   447  LEU447     -0.2864
    147  CB         4.6290   53.1910   62.6820 C.3   447  LEU447      0.0297
    148  CG         5.6190   52.7810   63.7880 C.3   447  LEU447      0.0022
    149  CD1        6.9150   53.5930   63.6780 C.3   447  LEU447      0.0001
    150  CD2        4.9760   52.9960   65.1470 C.3   447  LEU447      0.0001
    151  N         13.5170   50.0430   61.4100 N.3   455  ARG455     -0.1245
    152  CA        12.2520   50.6300   61.8040 C.3   455  ARG455      0.1563
    153  C         12.1450   51.9820   61.0880 C.2   455  ARG455      0.2260
    154  O         13.0460   52.8150   61.1870 O.2   455  ARG455     -0.2867
    155  CB        12.2360   50.8170   63.3190 C.3   455  ARG455      0.0307
    156  CG        10.8710   51.0960   63.9100 C.3   455  ARG455      0.0489
    157  CD         9.9500   49.8990   63.8110 C.3   455  ARG455      0.2205
    158  NE         8.7670   50.0940   64.6450 N.pl3 455  ARG455     -0.0865
    159  CZ         7.6570   49.3660   64.5670 C.cat 455  ARG455      0.5346
    160  NH1        7.5760   48.3800   63.6810 N.pl3 455  ARG455      0.1354
    161  NH2        6.6310   49.6300   65.3690 N.pl3 455  ARG455      0.1354
    162  N          9.3770   55.3020   59.3210 N.3   457  ILE457     -0.1245
    163  CA         8.1090   56.0120   59.3430 C.3   457  ILE457      0.1561
    164  C          7.9490   56.6830   57.9840 C.2   457  ILE457      0.2260
    165  O          8.6820   57.6160   57.6670 O.2   457  ILE457     -0.2867
    166  CB         8.0800   57.1210   60.4080 C.3   457  ILE457      0.0252
    167  CG1        8.5220   56.5730   61.7630 C.3   457  ILE457      0.0019
    168  CG2        6.6740   57.6890   60.5160 C.3   457  ILE457      0.0019
    169  CD1        8.5790   57.6400   62.8480 C.3   457  ILE457      0.0001
@<TRIPOS>BOND
     1   142   140    1
     2   140   141    1
     3   140   137    1
     4   165   164    2
     5   131   132    1
     6   164   163    1
     7   136   137    1
     8   136   133   am
     9   137   138    1
    10   103   102    2
    11   132   133    1
    12   132   135    1
    13   133   134    2
    14   139   138    2
    15    92    91    2
    16   138   143   am
    17    91    90    1
    18   162   163    1
    19   163   166    1
    20   102   101    1
    21   100   101    1
    22    89    90    1
    23    37    36    2
    24    90    93    1
    25   143   144    1
    26   101   104    1
    27    85    84    2
    28   166   168    1
    29   166   167    1
    30    84    83    1
    31    38    39    1
    32    38    35    1
    33    36    35    1
    34   145   146    2
    35   145   144    1
    36    82    83    1
    37   153   154    2
    38   153   152    1
    39   104   105    1
    40   144   147    1
    41    39    40   ar
    42    39    41   ar
    43    83    86    1
    44    35    34    1
    45   151   152    1
    46    40    42   ar
    47    93    94    1
    48   167   169    1
    49   152   155    1
    50    41    43   ar
    51    94    95    1
    52    42    44   ar
    53   105   106    1
    54   125   126    2
    55   125   124    1
    56    43    44   ar
    57    44    45    1
    58   147   148    1
    59   109   108    1
    60    86    88    1
    61    86    87    1
    62   106   107    1
    63   124   123    1
    64   124   127    1
    65   155   156    1
    66    95    96    1
    67   120   119    2
    68   149   148    1
    69   160   159    1
    70   129   128    1
    71   148   150    1
    72   157   156    1
    73   157   158    1
    74   108   107    2
    75   108   110    1
    76   128   127    1
    77   128   130    1
    78    96    97    2
    79   159   158    2
    80   159   161    1
    81   119   118    1
    82    26    25    2
    83     7     6    1
    84     7     8    1
    85    25    24    1
    86    10     9    1
    87     6     5    1
    88    97    98    1
    89    97    99    1
    90     1     2    1
    91     2     5    1
    92     2     3    1
    93   122   121    1
    94     8     9    2
    95   117   118    1
    96   117   113   am
    97     9    11    1
    98   118   121    1
    99    64    62   ar
   100    64    65   ar
   101   111   112    1
   102    62    60   ar
   103    66    65    1
   104    65    63   ar
   105     3     4    2
   106    60    59    1
   107    60    61   ar
   108   112   113    1
   109   112   115    1
   110    59    56    1
   111    24    23    1
   112    24    27    1
   113   113   114    2
   114    63    61   ar
   115    73    71    1
   116    58    57    2
   117    27    28    1
   118    57    56    1
   119    57    67   am
   120   116   115    1
   121    56    55    1
   122    71    68    1
   123    71    72    1
   124    28    29    1
   125    68    67    1
   126    68    69    1
   127    55    48   am
   128    22    20    1
   129    14    15    2
   130    14    13    1
   131    29    30    1
   132    32    31    1
   133    30    31    2
   134    31    33    1
   135    19    20    2
   136    19    18    1
   137    20    21    1
   138    53    52   ar
   139    69    74   am
   140    69    70    2
   141    48    49    2
   142    48    47    1
   143    74    75    1
   144    12    13    1
   145    17    16    1
   146    17    18    1
   147    16    13    1
   148    46    47    1
   149    52    51    1
   150    52    54   ar
   151    51    50    1
   152    47    50    1
   153    76    75    1
   154    76    77    2
   155    75    78    1
   156    78    79    1
   157    79    80    1
   158    79    81    1
