@<TRIPOS>MOLECULE
tmp/1pdaA00.pdb
 186 174 0 0 0
SMALL
GASTEIGER

@<TRIPOS>ATOM
      1  N         14.5520   13.4310   20.1190 N.3     9  ARG9       -0.1245
      2  CA        14.8470   13.8710   21.5040 C.3     9  ARG9        0.1563
      3  C         16.0510   14.8410   21.3970 C.2     9  ARG9        0.2260
      4  O         16.7210   15.0310   20.4030 O.2     9  ARG9       -0.2867
      5  CB        15.2540   12.6490   22.3920 C.3     9  ARG9        0.0307
      6  CG        13.9670   11.9500   22.8890 C.3     9  ARG9        0.0489
      7  CD        14.3690   10.6940   23.6680 C.3     9  ARG9        0.2205
      8  NE        15.1540   11.0920   24.8650 N.pl3   9  ARG9       -0.0865
      9  CZ        16.4890   10.8700   24.9670 C.cat   9  ARG9        0.5346
     10  NH1       17.1650   10.2090   24.0420 N.pl3   9  ARG9        0.1354
     11  NH2       17.0040   11.3400   26.1380 N.pl3   9  ARG9        0.1354
     12  N         18.8980   15.1100   23.6570 N.3    11  SER11      -0.1203
     13  CA        20.1790   14.8340   24.3260 C.3    11  SER11       0.2005
     14  C         21.3080   14.8050   23.3400 C.2    11  SER11       0.2461
     15  O         21.0330   14.6820   22.1110 O.2    11  SER11      -0.2732
     16  CB        20.0750   13.4400   25.0740 C.3    11  SER11       0.2103
     17  OG        19.9860   12.4390   24.0240 O.3    11  SER11      -0.2182
     18  N         22.5620   14.8640   23.7100 N.am   12  PRO12      -0.2717
     19  CA        23.6760   14.8030   22.7920 C.3    12  PRO12       0.1535
     20  C         23.5550   13.5200   21.9230 C.2    12  PRO12       0.2598
     21  O         23.7210   13.5450   20.7240 O.2    12  PRO12      -0.2715
     22  CB        24.8970   14.8470   23.6840 C.3    12  PRO12       0.0310
     23  CG        24.4330   15.6030   24.8910 C.3    12  PRO12       0.0237
     24  CD        22.9780   15.1820   25.0960 C.3    12  PRO12       0.0939
     25  N         23.1990   12.3940   22.5770 N.am   13  LEU13      -0.1978
     26  CA        23.0920   11.1660   21.7170 C.3    13  LEU13       0.1596
     27  C         21.9370   11.2010   20.7420 C.2    13  LEU13       0.2287
     28  O         22.1840   10.7960   19.5880 O.2    13  LEU13      -0.2864
     29  CB        22.9730    9.9340   22.6700 C.3    13  LEU13       0.0297
     30  CG        22.9070    8.5740   21.8920 C.3    13  LEU13       0.0022
     31  CD1       24.0880    8.2980   21.0420 C.3    13  LEU13       0.0001
     32  CD2       22.7490    7.4840   22.9520 C.3    13  LEU13       0.0001
     33  N         10.0640   10.5800   29.1640 N.3    43  GLY43      -0.1210
     34  CA        11.2640    9.8880   29.6680 C.3    43  GLY43       0.1956
     35  C         12.3340   10.8260   30.2010 C.2    43  GLY43       0.2611
     36  O         13.1160   10.4320   31.1240 O.2    43  GLY43      -0.2717
     37  N         12.3660   11.9920   29.5900 N.am   44  ASP44      -0.1973
     38  CA        13.3960   13.0030   29.9050 C.3    44  ASP44       0.1709
     39  C         13.1200   13.7680   31.2090 C.2    44  ASP44       0.2293
     40  O         14.0950   14.2480   31.8230 O.2    44  ASP44      -0.2864
     41  CB        13.5900   13.9660   28.7260 C.3    44  ASP44       0.1436
     42  CG        14.2250   13.2180   27.5480 C.2    44  ASP44       0.3671
     43  OD1       15.3670   12.7060   27.6830 O.co2  44  ASP44      -0.2456
     44  OD2       13.5290   13.1170   26.5120 O.co2  44  ASP44      -0.2456
     45  N          9.9390    7.1370   25.7910 N.3    51  PHE51      -0.1298
     46  CA        10.9350    7.9120   25.0050 C.3    51  PHE51       0.1290
     47  C         10.3850    8.2890   23.6240 C.3    51  PHE51       0.2013
     48  O         11.2360    8.8160   22.8900 O.3    51  PHE51      -0.2188
     49  CB        12.2810    7.1480   24.7820 C.3    51  PHE51       0.0480
     50  CG        12.9520    6.8630   26.1140 C.ar   51  PHE51      -0.0206
     51  CD1       13.4260    7.9370   26.8530 C.ar   51  PHE51      -0.0042
     52  CD2       12.9270    5.5440   26.6400 C.ar   51  PHE51      -0.0042
     53  CE1       14.0330    7.7470   28.0980 C.ar   51  PHE51      -0.0003
     54  CE2       13.4710    5.2910   27.9100 C.ar   51  PHE51      -0.0003
     55  CZ        14.0130    6.4020   28.5940 C.ar   51  PHE51      -0.0000
     56  N         16.4270    5.3600   18.8990 N.3    70  SER70      -0.1217
     57  CA        17.2910    4.1760   19.1530 C.3    70  SER70       0.1889
     58  C         16.2200    3.0070   19.1180 C.2    70  SER70       0.2288
     59  O         15.2000    3.0160   19.8230 O.2    70  SER70      -0.2866
     60  CB        18.0210    4.1280   20.4790 C.3    70  SER70       0.2089
     61  OG        18.9510    5.2180   20.5260 O.3    70  SER70      -0.2183
     62  N         15.9780    0.1450   20.5650 N.3    72  LYS72      -0.1231
     63  CA        15.5820   -0.5330   21.7780 C.3    72  LYS72       0.1693
     64  C         14.4780    0.1650   22.5480 C.2    72  LYS72       0.2592
     65  O         13.8170   -0.3590   23.4280 O.2    72  LYS72      -0.2718
     66  CB        16.8020   -0.8370   22.6380 C.3    72  LYS72       0.0285
     67  CG        17.4960    0.3190   23.2980 C.3    72  LYS72       0.0035
     68  CD        18.6410   -0.2570   24.1220 C.3    72  LYS72       0.0206
     69  CE        19.1080    0.6800   25.2100 C.3    72  LYS72       0.1093
     70  NZ        20.0560   -0.0620   26.0560 N.3    72  LYS72      -0.1314
     71  N         14.3530    1.5120   22.2160 N.am   73  ASP73      -0.1974
     72  CA        13.3260    2.3560   22.8130 C.3    73  ASP73       0.1709
     73  C         11.9980    2.3420   22.0920 C.2    73  ASP73       0.2293
     74  O         11.0150    2.8930   22.6900 O.2    73  ASP73      -0.2864
     75  CB        13.8490    3.8450   22.9010 C.3    73  ASP73       0.1436
     76  CG        15.0230    3.9120   23.8390 C.2    73  ASP73       0.3671
     77  OD1       15.1100    3.4830   25.0010 O.co2  73  ASP73      -0.2456
     78  OD2       15.9480    4.6590   23.3600 O.co2  73  ASP73      -0.2456
     79  N         22.6560    0.4030   36.9790 N.3   116  THR116     -0.1203
     80  CA        21.7550    0.1340   35.8240 C.3   116  THR116      0.1994
     81  C         20.3580    0.0590   36.3120 C.2   116  THR116      0.2619
     82  O         19.9410   -0.4790   37.3700 O.2   116  THR116     -0.2717
     83  CB        22.2080   -1.1920   35.0470 C.3   116  THR116      0.1784
     84  OG1       21.1570   -1.2860   34.0010 O.3   116  THR116     -0.2211
     85  CG2       22.0020   -2.3910   36.0090 C.3   116  THR116      0.0376
     86  N         19.4310    0.6540   35.5030 N.am  117  SER117     -0.1937
     87  CA        18.0120    0.5530   35.7240 C.3   117  SER117      0.2055
     88  C         17.3560   -0.4770   34.8090 C.2   117  SER117      0.2643
     89  O         16.1420   -0.5470   34.7380 O.2   117  SER117     -0.2714
     90  CB        17.3950    1.9440   35.3120 C.3   117  SER117      0.2130
     91  OG        16.6740    2.2970   36.4490 O.3   117  SER117     -0.2179
     92  N         18.1660   -1.2490   34.0560 N.am  118  SER118     -0.1949
     93  CA        17.6180   -2.2770   33.1500 C.3   118  SER118      0.1924
     94  C         17.4790   -3.6280   33.8690 C.2   118  SER118      0.2314
     95  O         18.4900   -4.1280   34.3730 O.2   118  SER118     -0.2863
     96  CB        18.6970   -2.4570   32.0970 C.3   118  SER118      0.2116
     97  OG        18.3240   -3.6050   31.3270 O.3   118  SER118     -0.2180
     98  N         16.7910   -6.2990   32.4050 N.3   120  ARG120     -0.1231
     99  CA        17.5090   -7.2330   31.4760 C.3   120  ARG120      0.1694
    100  C         18.9220   -7.3230   31.9670 C.2   120  ARG120      0.2591
    101  O         19.5240   -8.4350   32.2030 O.2   120  ARG120     -0.2718
    102  CB        17.4090   -6.8380   29.9970 C.3   120  ARG120      0.0321
    103  CG        18.4410   -7.5440   29.0800 C.3   120  ARG120      0.0489
    104  CD        18.3590   -6.8870   27.7090 C.3   120  ARG120      0.2205
    105  NE        18.9510   -5.5320   27.7640 N.pl3 120  ARG120     -0.0865
    106  CZ        20.2220   -5.2340   27.6730 C.cat 120  ARG120      0.5346
    107  NH1       21.2460   -6.1170   27.5620 N.pl3 120  ARG120      0.1354
    108  NH2       20.6110   -3.9570   27.7140 N.pl3 120  ARG120      0.1354
    109  N         19.6520   -6.2150   32.2320 N.am  121  ARG121     -0.1980
    110  CA        21.0320   -6.1860   32.6350 C.3   121  ARG121      0.1597
    111  C         21.1410   -6.7190   34.0710 C.2   121  ARG121      0.2287
    112  O         22.1080   -7.4860   34.2980 O.2   121  ARG121     -0.2864
    113  CB        21.6540   -4.7780   32.4940 C.3   121  ARG121      0.0334
    114  CG        21.7810   -4.3560   31.0170 C.3   121  ARG121      0.0492
    115  CD        22.2460   -2.9060   30.9840 C.3   121  ARG121      0.2205
    116  NE        22.6830   -2.5610   29.6600 N.pl3 121  ARG121     -0.0865
    117  CZ        22.6700   -1.3760   28.9730 C.cat 121  ARG121      0.5346
    118  NH1       22.0670   -0.3440   29.6040 N.pl3 121  ARG121      0.1354
    119  NH2       23.0940   -1.2900   27.7580 N.pl3 121  ARG121      0.1354
    120  N         19.5430    6.3810   36.3990 N.3   138  ARG138     -0.1231
    121  CA        18.7280    6.9510   35.3240 C.3   138  ARG138      0.1694
    122  C         19.4940    8.1560   34.7470 C.2   138  ARG138      0.2593
    123  O         20.3900    8.6950   35.4240 O.2   138  ARG138     -0.2718
    124  CB        17.3780    7.4230   35.8800 C.3   138  ARG138      0.0321
    125  CG        16.3630    6.3410   36.2360 C.3   138  ARG138      0.0489
    126  CD        15.9270    5.6240   35.0090 C.3   138  ARG138      0.2205
    127  NE        15.6950    6.4550   33.8220 N.pl3 138  ARG138     -0.0865
    128  CZ        14.7000    7.3270   33.5790 C.cat 138  ARG138      0.5346
    129  NH1       13.7500    7.5470   34.5140 N.pl3 138  ARG138      0.1354
    130  NH2       14.6030    8.0330   32.4500 N.pl3 138  ARG138      0.1354
    131  N         19.1340    8.5350   33.5030 N.am  139  GLY139     -0.1942
    132  CA        19.7730    9.7670   32.9760 C.3   139  GLY139      0.2014
    133  C         20.4010    9.5950   31.6310 C.2   139  GLY139      0.2639
    134  O         20.5810    8.4320   31.1800 O.2   139  GLY139     -0.2714
    135  N         20.7140   10.6720   30.9160 N.am  140  ASN140     -0.1958
    136  CA        21.4130   10.6020   29.6240 C.3   140  ASN140      0.1819
    137  C         22.8180   10.0230   29.8290 C.2   140  ASN140      0.2621
    138  O         23.2810   10.0750   30.9960 O.2   140  ASN140     -0.2715
    139  CB        21.6550   12.0200   28.9950 C.3   140  ASN140      0.1195
    140  CG        20.3230   12.6240   28.6400 C.2   140  ASN140      0.2630
    141  OD1       19.3040   11.9200   28.3820 O.2   140  ASN140     -0.2716
    142  ND2       20.3480   13.9650   28.4900 N.am  140  ASN140     -0.0877
    143  N         23.4910    9.5910   28.7740 N.am  141  VAL141     -0.1977
    144  CA        24.8490    9.0470   28.9060 C.3   141  VAL141      0.1596
    145  C         25.7840    9.9680   29.7160 C.2   141  VAL141      0.2287
    146  O         26.3770    9.4810   30.6950 O.2   141  VAL141     -0.2864
    147  CB        25.4750    8.6820   27.5300 C.3   141  VAL141      0.0276
    148  CG1       26.9470    8.2930   27.7010 C.3   141  VAL141      0.0022
    149  CG2       24.5690    7.6470   26.8500 C.3   141  VAL141      0.0022
    150  N         24.9780    9.8880   33.4140 N.3   144  ARG144     -0.1245
    151  CA        25.3880    8.5650   34.0700 C.3   144  ARG144      0.1563
    152  C         26.8850    8.5470   34.2630 C.2   144  ARG144      0.2260
    153  O         27.3500    8.1240   35.3670 O.2   144  ARG144     -0.2867
    154  CB        24.8280    7.4410   33.1720 C.3   144  ARG144      0.0307
    155  CG        23.3220    7.3300   33.1930 C.3   144  ARG144      0.0489
    156  CD        22.9480    6.1600   32.2810 C.3   144  ARG144      0.2205
    157  NE        21.5290    5.9120   32.2460 N.pl3 144  ARG144     -0.0865
    158  CZ        20.8960    4.7830   32.5270 C.cat 144  ARG144      0.5346
    159  NH1       21.6490    3.7260   32.9100 N.pl3 144  ARG144      0.1354
    160  NH2       19.6010    4.5890   32.4210 N.pl3 144  ARG144      0.1354
    161  N         26.8180   -0.0640   33.5200 N.3   157  ILE157     -0.1245
    162  CA        26.7200   -0.8020   32.2260 C.3   157  ILE157      0.1561
    163  C         25.9790    0.0990   31.2490 C.2   157  ILE157      0.2260
    164  O         24.8930    0.5840   31.6530 O.2   157  ILE157     -0.2867
    165  CB        25.9790   -2.1900   32.3830 C.3   157  ILE157      0.0252
    166  CG1       26.5440   -3.1050   33.5220 C.3   157  ILE157      0.0019
    167  CG2       25.9690   -2.9700   31.0320 C.3   157  ILE157      0.0019
    168  CD1       28.0070   -3.4800   33.4020 C.3   157  ILE157      0.0001
    169  N         19.4960   -5.9120   24.4800 N.3   184  ALA184     -0.1245
    170  CA        18.0620   -5.6420   24.3370 C.3   184  ALA184      0.1562
    171  C         17.7130   -5.6550   22.8580 C.2   184  ALA184      0.2260
    172  O         18.5550   -5.4370   21.9980 O.2   184  ALA184     -0.2867
    173  CB        17.8180   -4.1510   24.7830 C.3   184  ALA184      0.0290
    174  N         11.2110   -1.7100   27.5500 N.3   231  CYS231     -0.1235
    175  CA        12.3800   -1.4800   28.3910 C.3   231  CYS231      0.1677
    176  C         12.2490   -1.8320   29.8620 C.2   231  CYS231      0.2270
    177  O         13.2480   -1.9730   30.6080 O.2   231  CYS231     -0.2867
    178  CB        12.7190    0.0670   28.3510 C.3   231  CYS231      0.0956
    179  SG        13.0760    0.5960   26.6700 S.3   231  CYS231     -0.0801
    180  N         11.0540   -4.4840   31.1270 N.3   233  VAL233     -0.1245
    181  CA        10.9030   -5.9190   31.5360 C.3   233  VAL233      0.1561
    182  C         12.2490   -6.6090   31.3220 C.2   233  VAL233      0.2260
    183  O         13.0500   -6.1840   30.4660 O.2   233  VAL233     -0.2867
    184  CB         9.6970   -6.5340   30.7860 C.3   233  VAL233      0.0252
    185  CG1        8.4240   -6.1540   31.5580 C.3   233  VAL233      0.0019
    186  CG2        9.5880   -6.1810   29.3300 C.3   233  VAL233      0.0019
@<TRIPOS>BOND
     1    56    57    1
     2    58    57    1
     3    58    59    2
     4    57    60    1
     5    28    27    2
     6     1     2    1
     7     4     3    2
     8    60    61    1
     9    62    63    1
    10    21    20    2
    11    27    26    1
    12    31    30    1
    13     3     2    1
    14     2     5    1
    15    26    25    1
    16    26    29    1
    17    63    64    1
    18    63    66    1
    19    30    29    1
    20    30    32    1
    21    20    25   am
    22    20    19    1
    23   172   171    2
    24    73    74    2
    25    73    72    1
    26    15    14    2
    27    71    64   am
    28    71    72    1
    29     5     6    1
    30    64    65    2
    31    66    67    1
    32    19    22    1
    33    19    18    1
    34    72    75    1
    35   171   170    1
    36     6     7    1
    37    48    47    1
    38    75    76    1
    39    67    68    1
    40    14    18   am
    41    14    13    1
    42    78    76   ar
    43    47    46    1
    44    12    13    1
    45     7     8    1
    46    22    23    1
    47    18    24    1
    48    76    77   ar
    49    17    16    1
    50    10     9    1
    51    68    69    1
    52    13    16    1
    53   170   169    1
    54   170   173    1
    55    49    46    1
    56    49    50    1
    57     8     9    2
    58    23    24    1
    59     9    11    1
    60    46    45    1
    61    69    70    1
    62    50    52   ar
    63    50    51   ar
    64    44    42   ar
    65    52    54   ar
    66   179   178    1
    67   149   147    1
    68    51    53   ar
    69   147   148    1
    70   147   144    1
    71    42    43   ar
    72    42    41    1
    73   174   175    1
    74   107   106    1
    75   106   108    1
    76   106   105    2
    77   104   105    1
    78   104   103    1
    79   119   117    1
    80    54    55   ar
    81    53    55   ar
    82   178   175    1
    83   141   140    2
    84   175   176    1
    85   142   140   am
    86   140   139    1
    87    41    38    1
    88   143   144    1
    89   143   137   am
    90   144   145    1
    91   117   118    1
    92   117   116    2
    93   139   136    1
    94   103   102    1
    95    33    34    1
    96   186   184    1
    97    37    38    1
    98    37    35   am
    99   136   137    1
   100   136   135    1
   101   116   115    1
   102    34    35    1
   103   145   146    2
   104   137   138    2
   105   176   177    2
   106    38    39    1
   107   102    99    1
   108    35    36    2
   109   183   182    2
   110   184   181    1
   111   184   185    1
   112   135   133   am
   113   115   114    1
   114   114   113    1
   115   167   165    1
   116   180   181    1
   117   134   133    2
   118    39    40    2
   119   163   164    2
   120   163   162    1
   121   182   181    1
   122    97    96    1
   123    99   100    1
   124    99    98    1
   125   133   132    1
   126   100   101    2
   127   100   109   am
   128    96    93    1
   129   162   165    1
   130   162   161    1
   131   109   110    1
   132   157   156    1
   133   157   158    2
   134   156   155    1
   135   165   166    1
   136   160   158    1
   137   130   128    1
   138   113   110    1
   139   158   159    1
   140   110   111    1
   141   132   131    1
   142    93    94    1
   143    93    92    1
   144   154   155    1
   145   154   151    1
   146   168   166    1
   147   150   151    1
   148   131   122   am
   149   128   127    2
   150   128   129    1
   151   127   126    1
   152    94    95    2
   153    84    83    1
   154    92    88   am
   155   151   152    1
   156   111   112    2
   157   152   153    2
   158    89    88    2
   159   122   121    1
   160   122   123    2
   161    88    87    1
   162   126   125    1
   163    83    80    1
   164    83    85    1
   165    90    87    1
   166    90    91    1
   167   121   124    1
   168   121   120    1
   169    86    87    1
   170    86    81   am
   171    80    81    1
   172    80    79    1
   173   124   125    1
   174    81    82    2
