@<TRIPOS>MOLECULE
tmp/1pdzA00.pdb
 101 94 0 0 0
SMALL
GASTEIGER

@<TRIPOS>ATOM
      1  N         32.2020   62.3420   12.9210 N.3    36  SER36      -0.1217
      2  CA        32.7830   63.2430   13.9400 C.3    36  SER36       0.1889
      3  C         32.4550   62.9810   15.4160 C.2    36  SER36       0.2288
      4  O         32.6680   61.8760   15.9190 O.2    36  SER36      -0.2866
      5  CB        32.4220   64.6960   13.6100 C.3    36  SER36       0.2089
      6  OG        33.1280   65.2060   12.5080 O.3    36  SER36      -0.2183
      7  N         36.3880   74.8130    9.5860 N.3   157  HIS157     -0.1241
      8  CA        36.2600   73.9960    8.3730 C.3   157  HIS157      0.1621
      9  C         37.3250   74.5480    7.4060 C.2   157  HIS157      0.2264
     10  O         37.7080   73.8850    6.4270 O.2   157  HIS157     -0.2867
     11  CB        34.8660   74.0780    7.7170 C.3   157  HIS157      0.0745
     12  CG        33.7450   73.6420    8.6080 C.ar  157  HIS157      0.0817
     13  ND1       32.4660   73.4330    8.1340 N.ar  157  HIS157     -0.2268
     14  CD2       33.7050   73.3750    9.9320 C.ar  157  HIS157      0.1154
     15  CE1       31.6890   73.0510    9.1360 C.ar  157  HIS157      0.1986
     16  NE2       32.4160   73.0080   10.2370 N.ar  157  HIS157     -0.2212
     17  N         29.7060   79.0970    7.5470 N.3   166  GLU166     -0.1245
     18  CA        29.3180   78.4920    6.2620 C.3   166  GLU166      0.1567
     19  C         28.4160   79.3590    5.3980 C.2   166  GLU166      0.2260
     20  O         27.5140   80.0120    5.9090 O.2   166  GLU166     -0.2867
     21  CB        28.5690   77.1760    6.4860 C.3   166  GLU166      0.0388
     22  CG        29.3200   76.1010    7.2230 C.3   166  GLU166      0.1160
     23  CD        28.4000   74.9900    7.6660 C.2   166  GLU166      0.3649
     24  OE1       27.6070   74.4940    6.8520 O.co2 166  GLU166     -0.2457
     25  OE2       28.4580   74.6020    8.8400 O.co2 166  GLU166     -0.2457
     26  N         34.7910   70.4450    4.2000 N.3   209  GLU209     -0.1245
     27  CA        33.5300   70.1680    3.5210 C.3   209  GLU209      0.1567
     28  C         33.5000   70.3350    2.0240 C.2   209  GLU209      0.2260
     29  O         32.4240   70.3310    1.4300 O.2   209  GLU209     -0.2867
     30  CB        32.3780   70.9670    4.1320 C.3   209  GLU209      0.0388
     31  CG        32.2280   70.8350    5.6490 C.3   209  GLU209      0.1160
     32  CD        30.8090   71.1300    6.1660 C.2   209  GLU209      0.3649
     33  OE1       29.9250   71.5940    5.3980 O.co2 209  GLU209     -0.2457
     34  OE2       30.5740   70.8590    7.3650 O.co2 209  GLU209     -0.2457
     35  N         25.3390   79.8080    8.2090 N.3   244  ASP244     -0.1239
     36  CA        25.5840   79.1870    9.4860 C.3   244  ASP244      0.1674
     37  C         26.6340   80.1160   10.0070 C.2   244  ASP244      0.2266
     38  O         27.7890   80.0560    9.5990 O.2   244  ASP244     -0.2867
     39  CB        26.1850   77.7960    9.3150 C.3   244  ASP244      0.1410
     40  CG        26.4810   77.1030   10.6470 C.2   244  ASP244      0.3668
     41  OD1       26.7420   77.7820   11.6690 O.co2 244  ASP244     -0.2456
     42  OD2       26.4610   75.8570   10.6610 O.co2 244  ASP244     -0.2456
     43  N         21.8280   75.0030   15.9810 N.3   319  ASP319     -0.1239
     44  CA        22.8270   73.9460   15.9300 C.3   319  ASP319      0.1674
     45  C         23.4490   73.7980   17.3100 C.2   319  ASP319      0.2266
     46  O         23.1240   72.8570   18.0200 O.2   319  ASP319     -0.2867
     47  CB        23.8900   74.2510   14.8840 C.3   319  ASP319      0.1410
     48  CG        24.8910   73.1180   14.7280 C.2   319  ASP319      0.3668
     49  OD1       24.5210   71.9530   14.9410 O.co2 319  ASP319     -0.2456
     50  OD2       26.0540   73.3800   14.3970 O.co2 319  ASP319     -0.2456
     51  N         21.8040   66.1970   13.9740 N.3   344  LYS344     -0.1245
     52  CA        23.0820   65.5000   13.8710 C.3   344  LYS344      0.1561
     53  C         22.9620   64.2580   14.7330 C.2   344  LYS344      0.2260
     54  O         23.1440   64.3450   15.9430 O.2   344  LYS344     -0.2867
     55  CB        24.2260   66.3540   14.3940 C.3   344  LYS344      0.0271
     56  CG        24.6730   67.4340   13.4440 C.3   344  LYS344      0.0035
     57  CD        25.5510   68.4410   14.1700 C.3   344  LYS344      0.0206
     58  CE        26.0740   69.4690   13.2010 C.3   344  LYS344      0.1093
     59  NZ        26.9610   70.4010   13.9030 N.3   344  LYS344     -0.1314
     60  N         21.9340   66.9070    9.1160 N.3   371  SER371     -0.1202
     61  CA        23.3020   67.3380    8.9030 C.3   371  SER371      0.2020
     62  C         24.4060   66.2700    9.0100 C.2   371  SER371      0.2619
     63  O         24.3610   65.3720    9.8490 O.2   371  SER371     -0.2717
     64  CB        23.6410   68.4250    9.8940 C.3   371  SER371      0.2103
     65  OG        24.9050   68.9840    9.5960 O.3   371  SER371     -0.2182
     66  N         25.4300   66.4440    8.1830 N.am  372  HIS372     -0.1961
     67  CA        26.5950   65.5850    8.1690 C.3   372  HIS372      0.1787
     68  C         27.4670   66.1610    9.2670 C.2   372  HIS372      0.2620
     69  O         27.0160   67.0160   10.0140 O.2   372  HIS372     -0.2715
     70  CB        27.2980   65.7290    6.8230 C.3   372  HIS372      0.0785
     71  CG        27.7400   67.1290    6.5170 C.ar  372  HIS372      0.0821
     72  ND1       27.3390   68.2220    7.2540 N.ar  372  HIS372     -0.2267
     73  CD2       28.5630   67.6070    5.5550 C.ar  372  HIS372      0.1154
     74  CE1       27.8980   69.3150    6.7600 C.ar  372  HIS372      0.1986
     75  NE2       28.6400   68.9680    5.7280 N.ar  372  HIS372     -0.2212
     76  N         28.7010   65.6980    9.3900 N.am  373  ARG373     -0.1963
     77  CA        29.6210   66.2600   10.3840 C.3   373  ARG373      0.1729
     78  C         30.8490   66.6770    9.5910 C.2   373  ARG373      0.2616
     79  O         30.9430   66.3420    8.4090 O.2   373  ARG373     -0.2715
     80  CB        29.9760   65.2540   11.4610 C.3   373  ARG373      0.0348
     81  CG        28.9350   65.1330   12.5310 C.3   373  ARG373      0.0492
     82  CD        28.8200   66.4230   13.3370 C.3   373  ARG373      0.2205
     83  NE        28.4410   66.1380   14.7160 N.pl3 373  ARG373     -0.0865
     84  CZ        29.0660   66.6120   15.7910 C.cat 373  ARG373      0.5346
     85  NH1       30.0660   67.4740   15.6660 N.pl3 373  ARG373      0.1354
     86  NH2       28.6460   66.2700   17.0050 N.pl3 373  ARG373      0.1354
     87  N         31.7590   67.4480   10.1860 N.am  374  SER374     -0.1950
     88  CA        32.9450   67.8900    9.4390 C.3   374  SER374      0.1924
     89  C         33.7410   66.6460    9.0450 C.2   374  SER374      0.2314
     90  O         34.1960   66.5180    7.9070 O.2   374  SER374     -0.2863
     91  CB        33.7970   68.8500   10.2670 C.3   374  SER374      0.2116
     92  OG        34.1820   68.2550   11.4950 O.3   374  SER374     -0.2180
     93  N         21.9660   69.0570    4.7100 N.3   395  LYS395     -0.1245
     94  CA        23.1800   69.8300    4.6190 C.3   395  LYS395      0.1561
     95  C         24.3140   68.7880    4.7170 C.2   395  LYS395      0.2260
     96  O         24.7190   68.3990    5.8270 O.2   395  LYS395     -0.2867
     97  CB        23.1720   70.7400    5.8340 C.3   395  LYS395      0.0271
     98  CG        24.3430   71.5700    6.0790 C.3   395  LYS395      0.0035
     99  CD        24.4140   71.7630    7.5620 C.3   395  LYS395      0.0206
    100  CE        25.2060   72.9810    7.8630 C.3   395  LYS395      0.1093
    101  NZ        25.4940   73.0200    9.2900 N.3   395  LYS395     -0.1314
@<TRIPOS>BOND
     1    29    28    2
     2    28    27    1
     3    27    30    1
     4    27    26    1
     5    30    31    1
     6    94    93    1
     7    94    95    1
     8    94    97    1
     9    95    96    2
    10    19    20    2
    11    19    18    1
    12    33    32   ar
    13    73    75   ar
    14    73    71   ar
    15    31    32    1
    16    75    74   ar
    17    97    98    1
    18    98    99    1
    19    32    34   ar
    20    18    21    1
    21    18    17    1
    22    10     9    2
    23    21    22    1
    24    71    70    1
    25    71    72   ar
    26    74    72   ar
    27    70    67    1
    28    24    23   ar
    29    22    23    1
    30     9     8    1
    31    99   100    1
    32    23    25   ar
    33    11     8    1
    34    11    12    1
    35   100   101    1
    36    90    89    2
    37    13    12   ar
    38    13    15   ar
    39    67    66    1
    40    67    68    1
    41    66    62   am
    42    35    36    1
    43     8     7    1
    44    79    78    2
    45    12    14   ar
    46    61    62    1
    47    61    60    1
    48    61    64    1
    49    62    63    2
    50    89    88    1
    51    15    16   ar
    52    68    76   am
    53    68    69    2
    54    39    36    1
    55    39    40    1
    56    76    77    1
    57    88    87    1
    58    88    91    1
    59    36    37    1
    60    78    87   am
    61    78    77    1
    62    65    64    1
    63    38    37    2
    64    14    16   ar
    65    91    92    1
    66    77    80    1
    67    40    42   ar
    68    40    41   ar
    69    80    81    1
    70     6     5    1
    71    81    82    1
    72     1     2    1
    73    58    59    1
    74    58    57    1
    75    82    83    1
    76    56    57    1
    77    56    55    1
    78     5     2    1
    79    52    51    1
    80    52    55    1
    81    52    53    1
    82     2     3    1
    83    50    48   ar
    84    83    84    2
    85    48    47    1
    86    48    49   ar
    87    53    54    2
    88    47    44    1
    89     3     4    2
    90    85    84    1
    91    84    86    1
    92    44    43    1
    93    44    45    1
    94    45    46    2
