@<TRIPOS>MOLECULE
tmp/1pe5A01.pdb
 140 136 0 0 0
SMALL
GASTEIGER

@<TRIPOS>ATOM
      1  N         32.5380   34.0230    1.2570 N.3   111  ASN111     -0.1225
      2  CA        33.6520   34.8940    1.5390 C.3   111  ASN111      0.1785
      3  C         33.9300   35.8800    0.4820 C.2   111  ASN111      0.2597
      4  O         35.0590   35.9340    0.0280 O.2   111  ASN111     -0.2718
      5  CB        34.9690   34.0700    1.7980 C.3   111  ASN111      0.1169
      6  CG        34.9180   33.2980    3.1270 C.2   111  ASN111      0.2627
      7  OD1       34.4640   33.7800    4.1680 O.2   111  ASN111     -0.2716
      8  ND2       35.3050   32.0240    3.0560 N.am  111  ASN111     -0.0877
      9  N         32.9560   36.6490    0.0710 N.am  112  ASN112     -0.1960
     10  CA        33.2630   37.6580   -0.9270 C.3   112  ASN112      0.1819
     11  C         32.1690   38.7390   -0.8750 C.2   112  ASN112      0.2621
     12  O         31.1530   38.5930   -0.1250 O.2   112  ASN112     -0.2715
     13  CB        33.3780   37.0610   -2.3370 C.3   112  ASN112      0.1195
     14  CG        34.2400   37.8780   -3.3220 C.2   112  ASN112      0.2630
     15  OD1       34.7960   38.9410   -3.0390 O.2   112  ASN112     -0.2716
     16  ND2       34.3830   37.3870   -4.5200 N.am  112  ASN112     -0.0877
     17  N         32.3640   39.7680   -1.7350 N.am  113  ALA113     -0.1963
     18  CA        31.4020   40.8550   -1.9160 C.3   113  ALA113      0.1728
     19  C         31.5550   41.2320   -3.3560 C.2   113  ALA113      0.2616
     20  O         32.6330   41.0100   -3.8800 O.2   113  ALA113     -0.2715
     21  CB        31.6150   42.0460   -1.0180 C.3   113  ALA113      0.0334
     22  N         30.5080   41.7470   -3.9800 N.am  114  PHE114     -0.1974
     23  CA        30.6280   42.0980   -5.3660 C.3   114  PHE114      0.1639
     24  C         29.5090   43.0080   -5.8410 C.2   114  PHE114      0.2290
     25  O         28.5240   43.1850   -5.1910 O.2   114  PHE114     -0.2864
     26  CB        30.5260   40.8590   -6.2620 C.3   114  PHE114      0.0560
     27  CG        29.3260   39.9020   -6.1280 C.ar  114  PHE114     -0.0200
     28  CD1       28.2620   39.9470   -7.0500 C.ar  114  PHE114     -0.0042
     29  CD2       29.2970   38.9110   -5.1340 C.ar  114  PHE114     -0.0042
     30  CE1       27.1870   39.0430   -6.9760 C.ar  114  PHE114     -0.0003
     31  CE2       28.2660   37.9680   -5.0560 C.ar  114  PHE114     -0.0003
     32  CZ        27.1880   38.0770   -5.9520 C.ar  114  PHE114     -0.0000
     33  N         36.6320   35.3260    7.0710 N.3   130  PHE130     -0.1241
     34  CA        36.0710   36.6490    7.1090 C.3   130  PHE130      0.1605
     35  C         34.9030   36.6490    8.0480 C.2   130  PHE130      0.2264
     36  O         34.3310   35.5860    8.3950 O.2   130  PHE130     -0.2867
     37  CB        35.4190   36.9510    5.7370 C.3   130  PHE130      0.0534
     38  CG        36.3300   37.4950    4.6470 C.ar  130  PHE130     -0.0203
     39  CD1       36.7780   36.6730    3.6080 C.ar  130  PHE130     -0.0042
     40  CD2       36.7210   38.8360    4.6360 C.ar  130  PHE130     -0.0042
     41  CE1       37.6150   37.1510    2.5900 C.ar  130  PHE130     -0.0003
     42  CE2       37.5380   39.3400    3.6270 C.ar  130  PHE130     -0.0003
     43  CZ        37.9980   38.4950    2.6120 C.ar  130  PHE130     -0.0000
     44  N         31.1590   40.8080    5.2760 N.3   133  LEU133     -0.1245
     45  CA        32.0010   41.7630    4.5420 C.3   133  LEU133      0.1561
     46  C         31.6270   43.2580    4.5690 C.2   133  LEU133      0.2260
     47  O         32.4370   44.1620    4.3500 O.2   133  LEU133     -0.2867
     48  CB        32.1980   41.2240    3.0720 C.3   133  LEU133      0.0270
     49  CG        33.3200   40.1890    3.1310 C.3   133  LEU133      0.0019
     50  CD1       32.8000   38.7800    3.4900 C.3   133  LEU133      0.0001
     51  CD2       34.1290   40.2870    1.8970 C.3   133  LEU133      0.0001
     52  N         35.8210   48.0090    1.8680 N.3   139  VAL139     -0.1245
     53  CA        35.1640   46.9590    1.0440 C.3   139  VAL139      0.1561
     54  C         33.8850   47.5390    0.3860 C.2   139  VAL139      0.2260
     55  O         33.6600   47.4220   -0.8490 O.2   139  VAL139     -0.2867
     56  CB        34.7170   45.7950    1.9490 C.3   139  VAL139      0.0252
     57  CG1       33.8630   44.7490    1.2380 C.3   139  VAL139      0.0019
     58  CG2       35.9740   45.1370    2.5430 C.3   139  VAL139      0.0019
     59  N         34.8620   49.8790   -2.1430 N.3   142  HIS142     -0.1226
     60  CA        35.4930   49.1700   -3.3060 C.3   142  HIS142      0.1752
     61  C         34.3280   48.7390   -4.2500 C.2   142  HIS142      0.2595
     62  O         34.3770   48.8740   -5.4820 O.2   142  HIS142     -0.2718
     63  CB        36.3350   47.9940   -2.7820 C.3   142  HIS142      0.0759
     64  CG        36.8180   47.0760   -3.8650 C.ar  142  HIS142      0.0818
     65  ND1       38.2000   46.9750   -4.1360 N.ar  142  HIS142     -0.2268
     66  CD2       36.1330   46.1950   -4.7140 C.ar  142  HIS142      0.1154
     67  CE1       38.3390   46.0890   -5.1720 C.ar  142  HIS142      0.1986
     68  NE2       37.1300   45.6300   -5.5460 N.ar  142  HIS142     -0.2212
     69  N         33.2540   48.2170   -3.6410 N.am  143  GLU143     -0.1979
     70  CA        32.0710   47.7300   -4.4040 C.3   143  GLU143      0.1602
     71  C         31.3610   48.8020   -5.1660 C.2   143  GLU143      0.2287
     72  O         31.0380   48.6710   -6.3370 O.2   143  GLU143     -0.2864
     73  CB        31.0480   46.9030   -3.5870 C.3   143  GLU143      0.0415
     74  CG        31.6630   45.6540   -2.8130 C.3   143  GLU143      0.1163
     75  CD        32.6180   44.8250   -3.7100 C.2   143  GLU143      0.3649
     76  OE1       32.5280   44.7210   -4.8820 O.co2 143  GLU143     -0.2457
     77  OE2       33.6740   44.3720   -3.1450 O.co2 143  GLU143     -0.2457
     78  N         33.0830   50.0650   -8.2160 N.3   146  HIS146     -0.1241
     79  CA        33.0370   49.2790   -9.4710 C.3   146  HIS146      0.1621
     80  C         31.8590   49.8490  -10.2350 C.2   146  HIS146      0.2264
     81  O         31.8390   49.9360  -11.4170 O.2   146  HIS146     -0.2867
     82  CB        32.7300   47.8250   -9.1210 C.3   146  HIS146      0.0745
     83  CG        33.9680   46.9530   -8.9320 C.ar  146  HIS146      0.0817
     84  ND1       35.0890   47.0190   -9.8110 N.ar  146  HIS146     -0.2268
     85  CD2       34.2750   46.0840   -7.9280 C.ar  146  HIS146      0.1154
     86  CE1       36.0180   46.1490   -9.3940 C.ar  146  HIS146      0.1986
     87  NE2       35.5540   45.5750   -8.2570 N.ar  146  HIS146     -0.2212
     88  N         36.7290   43.7720  -17.6100 N.3   157  TYR157     -0.1241
     89  CA        37.2650   43.0370  -16.5190 C.3   157  TYR157      0.1605
     90  C         38.2290   41.9270  -16.8760 C.2   157  TYR157      0.2264
     91  O         38.1030   40.7130  -16.4810 O.2   157  TYR157     -0.2867
     92  CB        36.0660   42.5860  -15.6920 C.3   157  TYR157      0.0534
     93  CG        36.3720   42.5030  -14.2360 C.ar  157  TYR157     -0.0201
     94  CD1       36.1340   41.3000  -13.5680 C.ar  157  TYR157     -0.0009
     95  CD2       36.8250   43.5910  -13.4790 C.ar  157  TYR157     -0.0009
     96  CE1       36.3700   41.1520  -12.1980 C.ar  157  TYR157      0.0417
     97  CE2       37.0600   43.4760  -12.1010 C.ar  157  TYR157      0.0417
     98  CZ        36.8030   42.2550  -11.4670 C.ar  157  TYR157      0.1957
     99  OH        36.9920   42.0610  -10.1440 O.3   157  TYR157     -0.2866
    100  N         43.8450   46.8780    2.4450 N.3   188  ILE188     -0.1231
    101  CA        42.4290   46.5700    2.0130 C.3   188  ILE188      0.1692
    102  C         41.8040   45.4100    2.8200 C.2   188  ILE188      0.2592
    103  O         42.3330   44.2890    2.8110 O.2   188  ILE188     -0.2718
    104  CB        42.3360   46.1450    0.5430 C.3   188  ILE188      0.0266
    105  CG1       43.0540   47.2260   -0.2740 C.3   188  ILE188      0.0019
    106  CG2       40.8740   45.8620    0.1100 C.3   188  ILE188      0.0020
    107  CD1       42.3060   48.5340   -0.3790 C.3   188  ILE188      0.0001
    108  N         40.6360   45.7000    3.4330 N.am  189  GLY189     -0.1957
    109  CA        39.8630   44.6820    4.1150 C.3   189  GLY189      0.1869
    110  C         40.3170   44.2190    5.4860 C.2   189  GLY189      0.2309
    111  O         39.7550   43.2600    6.0660 O.2   189  GLY189     -0.2863
    112  N         43.7910   41.8130    3.1830 N.3   202  LEU202     -0.1231
    113  CA        43.7610   41.0740    1.9150 C.3   202  LEU202      0.1693
    114  C         44.8630   41.4780    0.9660 C.2   202  LEU202      0.2591
    115  O         45.3700   40.6330    0.2440 O.2   202  LEU202     -0.2718
    116  CB        42.4520   41.2230    1.0820 C.3   202  LEU202      0.0284
    117  CG        41.2510   40.6500    1.6980 C.3   202  LEU202      0.0019
    118  CD1       40.1430   40.9210    0.6630 C.3   202  LEU202      0.0001
    119  CD2       41.5860   39.1680    1.8150 C.3   202  LEU202      0.0001
    120  N         45.0530   42.7760    0.8150 N.am  203  ARG203     -0.1980
    121  CA        46.0460   43.3240   -0.0670 C.3   203  ARG203      0.1597
    122  C         46.6230   44.5630    0.6110 C.2   203  ARG203      0.2287
    123  O         45.9980   45.1980    1.4680 O.2   203  ARG203     -0.2864
    124  CB        45.4700   43.8430   -1.3830 C.3   203  ARG203      0.0334
    125  CG        44.8190   42.8110   -2.2580 C.3   203  ARG203      0.0492
    126  CD        44.3700   43.4610   -3.5800 C.3   203  ARG203      0.2205
    127  NE        43.0550   44.1010   -3.5070 N.pl3 203  ARG203     -0.0865
    128  CZ        41.8960   43.3970   -3.5390 C.cat 203  ARG203      0.5346
    129  NH1       41.8920   42.0590   -3.4780 N.pl3 203  ARG203      0.1354
    130  NH2       40.7040   44.0060   -3.5850 N.pl3 203  ARG203      0.1354
    131  N         43.1520   40.8750   -9.8130 N.3   231  HIS231     -0.1241
    132  CA        43.3280   41.2240   -8.4400 C.3   231  HIS231      0.1621
    133  C         44.8070   41.1020   -8.0450 C.2   231  HIS231      0.2264
    134  O         45.1450   41.4240   -6.8870 O.2   231  HIS231     -0.2867
    135  CB        42.4890   40.3850   -7.4910 C.3   231  HIS231      0.0745
    136  CG        41.0190   40.5830   -7.6800 C.ar  231  HIS231      0.0817
    137  ND1       40.3160   39.8490   -8.6660 N.ar  231  HIS231     -0.2268
    138  CD2       40.1350   41.3740   -7.0060 C.ar  231  HIS231      0.1154
    139  CE1       39.0470   40.2000   -8.5730 C.ar  231  HIS231      0.1986
    140  NE2       38.9240   41.1410   -7.6360 N.ar  231  HIS231     -0.2212
@<TRIPOS>BOND
     1    88    89    1
     2    90    89    1
     3    90    91    2
     4    89    92    1
     5    92    93    1
     6    93    94   ar
     7    93    95   ar
     8    94    96   ar
     9    95    97   ar
    10    96    98   ar
    11    97    98   ar
    12    98    99    1
    13    81    80    2
    14    80    79    1
    15   131   132    1
    16    84    86   ar
    17    84    83   ar
    18    79    82    1
    19    79    78    1
    20    86    87   ar
    21    82    83    1
    22    83    85   ar
    23   137   139   ar
    24   137   136   ar
    25   139   140   ar
    26   132   133    1
    27   132   135    1
    28    87    85   ar
    29   133   134    2
    30   136   135    1
    31   136   138   ar
    32   140   138   ar
    33    28    30   ar
    34    28    27   ar
    35    30    32   ar
    36    72    71    2
    37    26    27    1
    38    26    23    1
    39    27    29   ar
    40    32    31   ar
    41    24    23    1
    42    24    25    2
    43    68    67   ar
    44    68    66   ar
    45    62    61    2
    46    23    22    1
    47    67    65   ar
    48    71    70    1
    49    29    31   ar
    50    76    75   ar
    51    66    64   ar
    52    16    14   am
    53    70    69    1
    54    70    73    1
    55    61    69   am
    56    61    60    1
    57    65    64   ar
    58    22    19   am
    59    20    19    2
    60    64    63    1
    61    75    77   ar
    62    75    74    1
    63    73    74    1
    64   130   128    1
    65   126   127    1
    66   126   125    1
    67   128   127    2
    68   128   129    1
    69    19    18    1
    70    14    15    2
    71    14    13    1
    72    60    63    1
    73    60    59    1
    74    13    10    1
    75   125   124    1
    76    18    17    1
    77    18    21    1
    78    17    11   am
    79   124   121    1
    80    10    11    1
    81    10     9    1
    82    11    12    2
    83    55    54    2
    84   107   105    1
    85   105   104    1
    86   121   122    1
    87   121   120    1
    88     4     3    2
    89     9     3   am
    90   106   104    1
    91   115   114    2
    92    54    53    1
    93     3     2    1
    94   104   101    1
    95   122   123    2
    96   118   117    1
    97   120   114   am
    98   114   113    1
    99    53    52    1
   100    53    56    1
   101   116   117    1
   102   116   113    1
   103    57    56    1
   104     1     2    1
   105     2     5    1
   106   117   119    1
   107     5     6    1
   108    51    49    1
   109   113   112    1
   110    56    58    1
   111   101   100    1
   112   101   102    1
   113    41    43   ar
   114    41    39   ar
   115    43    42   ar
   116   103   102    2
   117   102   108   am
   118     8     6   am
   119    48    49    1
   120    48    45    1
   121     6     7    2
   122    49    50    1
   123   108   109    1
   124    39    38   ar
   125    42    40   ar
   126   109   110    1
   127    47    46    2
   128    45    46    1
   129    45    44    1
   130    40    38   ar
   131    38    37    1
   132   110   111    2
   133    37    34    1
   134    33    34    1
   135    34    35    1
   136    35    36    2
