@<TRIPOS>MOLECULE
tmp/1pe5A00.pdb
 125 124 0 0 0
SMALL
GASTEIGER

@<TRIPOS>ATOM
      1  N         32.9560   36.6490    0.0710 N.3   112  ASN112     -0.1225
      2  CA        33.2630   37.6580   -0.9270 C.3   112  ASN112      0.1785
      3  C         32.1690   38.7390   -0.8750 C.2   112  ASN112      0.2597
      4  O         31.1530   38.5930   -0.1250 O.2   112  ASN112     -0.2718
      5  CB        33.3780   37.0610   -2.3370 C.3   112  ASN112      0.1169
      6  CG        34.2400   37.8780   -3.3220 C.2   112  ASN112      0.2627
      7  OD1       34.7960   38.9410   -3.0390 O.2   112  ASN112     -0.2716
      8  ND2       34.3830   37.3870   -4.5200 N.am  112  ASN112     -0.0877
      9  N         32.3640   39.7680   -1.7350 N.am  113  ALA113     -0.1966
     10  CA        31.4020   40.8550   -1.9160 C.3   113  ALA113      0.1728
     11  C         31.5550   41.2320   -3.3560 C.2   113  ALA113      0.2616
     12  O         32.6330   41.0100   -3.8800 O.2   113  ALA113     -0.2715
     13  CB        31.6150   42.0460   -1.0180 C.3   113  ALA113      0.0334
     14  N         30.5080   41.7470   -3.9800 N.am  114  PHE114     -0.1960
     15  CA        30.6280   42.0980   -5.3660 C.3   114  PHE114      0.1771
     16  C         29.5090   43.0080   -5.8410 C.2   114  PHE114      0.2619
     17  O         28.5240   43.1850   -5.1910 O.2   114  PHE114     -0.2715
     18  CB        30.5260   40.8590   -6.2620 C.3   114  PHE114      0.0574
     19  CG        29.3260   39.9020   -6.1280 C.ar  114  PHE114     -0.0200
     20  CD1       28.2620   39.9470   -7.0500 C.ar  114  PHE114     -0.0042
     21  CD2       29.2970   38.9110   -5.1340 C.ar  114  PHE114     -0.0042
     22  CE1       27.1870   39.0430   -6.9760 C.ar  114  PHE114     -0.0003
     23  CE2       28.2660   37.9680   -5.0560 C.ar  114  PHE114     -0.0003
     24  CZ        27.1880   38.0770   -5.9520 C.ar  114  PHE114     -0.0000
     25  N         29.7070   43.5280   -7.0480 N.am  115  TRP115     -0.1974
     26  CA        28.7560   44.4020   -7.7320 C.3   115  TRP115      0.1640
     27  C         28.2950   43.5440   -8.9120 C.2   115  TRP115      0.2290
     28  O         29.1570   43.0490   -9.6060 O.2   115  TRP115     -0.2864
     29  CB        29.4550   45.6910   -8.1870 C.3   115  TRP115      0.0576
     30  CG        28.5930   46.4470   -9.1690 C.ar  115  TRP115      0.0006
     31  CD1       28.8250   46.4740  -10.5150 C.ar  115  TRP115      0.0946
     32  CD2       27.5110   47.3720   -8.9050 C.ar  115  TRP115      0.0152
     33  NE1       27.8960   47.2560  -11.1460 N.ar  115  TRP115     -0.2442
     34  CE2       27.0720   47.8540  -10.1780 C.ar  115  TRP115      0.0810
     35  CE3       26.8280   47.7940   -7.7300 C.ar  115  TRP115      0.0012
     36  CZ2       25.9900   48.7830  -10.3120 C.ar  115  TRP115      0.0191
     37  CZ3       25.7930   48.6900   -7.8880 C.ar  115  TRP115      0.0001
     38  CH2       25.3270   49.1150   -9.1610 C.ar  115  TRP115      0.0015
     39  N         34.8620   49.8790   -2.1430 N.3   142  HIS142     -0.1226
     40  CA        35.4930   49.1700   -3.3060 C.3   142  HIS142      0.1752
     41  C         34.3280   48.7390   -4.2500 C.2   142  HIS142      0.2595
     42  O         34.3770   48.8740   -5.4820 O.2   142  HIS142     -0.2718
     43  CB        36.3350   47.9940   -2.7820 C.3   142  HIS142      0.0759
     44  CG        36.8180   47.0760   -3.8650 C.ar  142  HIS142      0.0818
     45  ND1       38.2000   46.9750   -4.1360 N.ar  142  HIS142     -0.2268
     46  CD2       36.1330   46.1950   -4.7140 C.ar  142  HIS142      0.1154
     47  CE1       38.3390   46.0890   -5.1720 C.ar  142  HIS142      0.1986
     48  NE2       37.1300   45.6300   -5.5460 N.ar  142  HIS142     -0.2212
     49  N         33.2540   48.2170   -3.6410 N.am  143  GLU143     -0.1979
     50  CA        32.0710   47.7300   -4.4040 C.3   143  GLU143      0.1602
     51  C         31.3610   48.8020   -5.1660 C.2   143  GLU143      0.2287
     52  O         31.0380   48.6710   -6.3370 O.2   143  GLU143     -0.2864
     53  CB        31.0480   46.9030   -3.5870 C.3   143  GLU143      0.0415
     54  CG        31.6630   45.6540   -2.8130 C.3   143  GLU143      0.1163
     55  CD        32.6180   44.8250   -3.7100 C.2   143  GLU143      0.3649
     56  OE1       32.5280   44.7210   -4.8820 O.co2 143  GLU143     -0.2457
     57  OE2       33.6740   44.3720   -3.1450 O.co2 143  GLU143     -0.2457
     58  N         33.0830   50.0650   -8.2160 N.3   146  HIS146     -0.1241
     59  CA        33.0370   49.2790   -9.4710 C.3   146  HIS146      0.1621
     60  C         31.8590   49.8490  -10.2350 C.2   146  HIS146      0.2264
     61  O         31.8390   49.9360  -11.4170 O.2   146  HIS146     -0.2867
     62  CB        32.7300   47.8250   -9.1210 C.3   146  HIS146      0.0745
     63  CG        33.9680   46.9530   -8.9320 C.ar  146  HIS146      0.0817
     64  ND1       35.0890   47.0190   -9.8110 N.ar  146  HIS146     -0.2268
     65  CD2       34.2750   46.0840   -7.9280 C.ar  146  HIS146      0.1154
     66  CE1       36.0180   46.1490   -9.3940 C.ar  146  HIS146      0.1986
     67  NE2       35.5540   45.5750   -8.2570 N.ar  146  HIS146     -0.2212
     68  N         36.7290   43.7720  -17.6100 N.3   157  TYR157     -0.1241
     69  CA        37.2650   43.0370  -16.5190 C.3   157  TYR157      0.1605
     70  C         38.2290   41.9270  -16.8760 C.2   157  TYR157      0.2264
     71  O         38.1030   40.7130  -16.4810 O.2   157  TYR157     -0.2867
     72  CB        36.0660   42.5860  -15.6920 C.3   157  TYR157      0.0534
     73  CG        36.3720   42.5030  -14.2360 C.ar  157  TYR157     -0.0201
     74  CD1       36.1340   41.3000  -13.5680 C.ar  157  TYR157     -0.0009
     75  CD2       36.8250   43.5910  -13.4790 C.ar  157  TYR157     -0.0009
     76  CE1       36.3700   41.1520  -12.1980 C.ar  157  TYR157      0.0417
     77  CE2       37.0600   43.4760  -12.1010 C.ar  157  TYR157      0.0417
     78  CZ        36.8030   42.2550  -11.4670 C.ar  157  TYR157      0.1957
     79  OH        36.9920   42.0610  -10.1440 O.3   157  TYR157     -0.2866
     80  N         40.2310   47.0630  -10.9600 N.3   166  GLU166     -0.1245
     81  CA        40.4020   46.6510   -9.5210 C.3   166  GLU166      0.1567
     82  C         41.1680   47.6890   -8.6350 C.2   166  GLU166      0.2260
     83  O         40.7800   48.0450   -7.5380 O.2   166  GLU166     -0.2867
     84  CB        41.1400   45.3010   -9.4220 C.3   166  GLU166      0.0388
     85  CG        40.1760   44.1160   -9.6280 C.3   166  GLU166      0.1160
     86  CD        38.9530   44.2450   -8.6530 C.2   166  GLU166      0.3649
     87  OE1       37.8820   43.8500   -8.9540 O.co2 166  GLU166     -0.2457
     88  OE2       39.3340   44.4790   -7.4500 O.co2 166  GLU166     -0.2457
     89  N         45.0530   42.7760    0.8150 N.3   203  ARG203     -0.1245
     90  CA        46.0460   43.3240   -0.0670 C.3   203  ARG203      0.1563
     91  C         46.6230   44.5630    0.6110 C.2   203  ARG203      0.2260
     92  O         45.9980   45.1980    1.4680 O.2   203  ARG203     -0.2867
     93  CB        45.4700   43.8430   -1.3830 C.3   203  ARG203      0.0307
     94  CG        44.8190   42.8110   -2.2580 C.3   203  ARG203      0.0489
     95  CD        44.3700   43.4610   -3.5800 C.3   203  ARG203      0.2205
     96  NE        43.0550   44.1010   -3.5070 N.pl3 203  ARG203     -0.0865
     97  CZ        41.8960   43.3970   -3.5390 C.cat 203  ARG203      0.5346
     98  NH1       41.8920   42.0590   -3.4780 N.pl3 203  ARG203      0.1354
     99  NH2       40.7040   44.0060   -3.5850 N.pl3 203  ARG203      0.1354
    100  N         42.2120   34.3590  -12.6450 N.3   226  ASP226     -0.1225
    101  CA        41.7050   35.6620  -12.1650 C.3   226  ASP226      0.1805
    102  C         41.5280   36.5900  -13.3450 C.2   226  ASP226      0.2597
    103  O         41.8860   37.7560  -13.3370 O.2   226  ASP226     -0.2718
    104  CB        42.5840   36.2520  -11.0400 C.3   226  ASP226      0.1424
    105  CG        42.0830   37.5290  -10.3910 C.2   226  ASP226      0.3668
    106  OD1       40.9650   37.9040  -10.4140 O.co2 226  ASP226     -0.2456
    107  OD2       42.9970   38.2290   -9.8110 O.co2 226  ASP226     -0.2456
    108  N         40.9710   36.0680  -14.4290 N.am  227  ASN227     -0.1974
    109  CA        40.7840   36.9350  -15.6100 C.3   227  ASN227      0.1688
    110  C         42.0910   37.6170  -16.0560 C.2   227  ASN227      0.2292
    111  O         42.0960   38.8200  -16.5060 O.2   227  ASN227     -0.2864
    112  CB        39.7100   38.0420  -15.3720 C.3   227  ASN227      0.1181
    113  CG        38.3140   37.4780  -15.1370 C.2   227  ASN227      0.2629
    114  OD1       37.5940   37.8250  -14.1710 O.2   227  ASN227     -0.2716
    115  ND2       37.9730   36.5790  -16.0380 N.am  227  ASN227     -0.0877
    116  N         43.1520   40.8750   -9.8130 N.3   231  HIS231     -0.1241
    117  CA        43.3280   41.2240   -8.4400 C.3   231  HIS231      0.1621
    118  C         44.8070   41.1020   -8.0450 C.2   231  HIS231      0.2264
    119  O         45.1450   41.4240   -6.8870 O.2   231  HIS231     -0.2867
    120  CB        42.4890   40.3850   -7.4910 C.3   231  HIS231      0.0745
    121  CG        41.0190   40.5830   -7.6800 C.ar  231  HIS231      0.0817
    122  ND1       40.3160   39.8490   -8.6660 N.ar  231  HIS231     -0.2268
    123  CD2       40.1350   41.3740   -7.0060 C.ar  231  HIS231      0.1154
    124  CE1       39.0470   40.2000   -8.5730 C.ar  231  HIS231      0.1986
    125  NE2       38.9240   41.1410   -7.6360 N.ar  231  HIS231     -0.2212
@<TRIPOS>BOND
     1    68    69    1
     2    70    69    1
     3    70    71    2
     4    69    72    1
     5   111   110    2
     6   110   109    1
     7   115   113   am
     8    72    73    1
     9   109   112    1
    10   109   108    1
    11   112   113    1
    12   113   114    2
    13   108   102   am
    14    73    74   ar
    15    73    75   ar
    16    74    76   ar
    17    75    77   ar
    18   102   103    2
    19   102   101    1
    20   100   101    1
    21    76    78   ar
    22   101   104    1
    23    77    78   ar
    24    78    79    1
    25    61    60    2
    26    33    31   ar
    27    33    34   ar
    28   104   105    1
    29    80    81    1
    30    31    30   ar
    31   106   105   ar
    32   105   107   ar
    33    36    34   ar
    34    36    38   ar
    35    60    59    1
    36    34    32   ar
    37   116   117    1
    38    64    66   ar
    39    64    63   ar
    40    85    84    1
    41    85    86    1
    42    28    27    2
    43    81    84    1
    44    81    82    1
    45    59    62    1
    46    59    58    1
    47    66    67   ar
    48    30    32   ar
    49    30    29    1
    50    38    37   ar
    51    62    63    1
    52    87    86   ar
    53    63    65   ar
    54    27    26    1
    55    32    35   ar
    56   122   124   ar
    57   122   121   ar
    58    86    88   ar
    59    82    83    2
    60   124   125   ar
    61   117   118    1
    62   117   120    1
    63    67    65   ar
    64    29    26    1
    65   118   119    2
    66    37    35   ar
    67    26    25    1
    68   121   120    1
    69   121   123   ar
    70   125   123   ar
    71    20    22   ar
    72    20    19   ar
    73    25    16   am
    74    22    24   ar
    75    52    51    2
    76    18    19    1
    77    18    15    1
    78    19    21   ar
    79    24    23   ar
    80    16    15    1
    81    16    17    2
    82    48    47   ar
    83    48    46   ar
    84    42    41    2
    85    15    14    1
    86    47    45   ar
    87    51    50    1
    88    21    23   ar
    89    56    55   ar
    90    46    44   ar
    91     8     6   am
    92    50    49    1
    93    50    53    1
    94    41    49   am
    95    41    40    1
    96    45    44   ar
    97    14    11   am
    98    12    11    2
    99    44    43    1
   100    55    57   ar
   101    55    54    1
   102    53    54    1
   103    99    97    1
   104    95    96    1
   105    95    94    1
   106    97    96    2
   107    97    98    1
   108    11    10    1
   109     6     7    2
   110     6     5    1
   111    40    43    1
   112    40    39    1
   113     5     2    1
   114    94    93    1
   115    10     9    1
   116    10    13    1
   117     9     3   am
   118    93    90    1
   119     2     3    1
   120     2     1    1
   121     3     4    2
   122    90    91    1
   123    90    89    1
   124    91    92    2
