@<TRIPOS>MOLECULE
tmp/1pe6A00.pdb
 117 117 0 0 0
SMALL
GASTEIGER

@<TRIPOS>ATOM
      1  N         14.8680   63.9420    2.3970 N.3    19  GLN19      -0.1245
      2  CA        13.4700   63.4660    2.3150 C.3    19  GLN19       0.1566
      3  C         12.7550   63.7270    3.6370 C.2    19  GLN19       0.2260
      4  O         11.5180   63.7490    3.6530 O.2    19  GLN19      -0.2867
      5  CB        13.3040   62.0100    1.9150 C.3    19  GLN19       0.0367
      6  CG        14.1460   61.0830    2.7820 C.3    19  GLN19       0.0905
      7  CD        14.0080   59.6740    2.2310 C.2    19  GLN19       0.2608
      8  OE1       14.8450   59.1760    1.4800 O.2    19  GLN19      -0.2717
      9  NE2       12.8830   59.0430    2.5670 N.am   19  GLN19      -0.0878
     10  N          8.7740   58.4420    4.0430 N.3    23  GLY23      -0.1225
     11  CA         9.3670   57.3590    3.2260 C.3    23  GLY23       0.1811
     12  C          9.2090   57.6630    1.7310 C.2    23  GLY23       0.2280
     13  O          8.5360   56.8980    1.0100 O.2    23  GLY23      -0.2866
     14  N         11.8330   58.1030   -0.4310 N.3    25  CYS25      -0.1221
     15  CA        13.0940   57.7140   -1.0840 C.3    25  CYS25       0.1808
     16  C         12.8090   57.4230   -2.5500 C.2    25  CYS25       0.2601
     17  O         13.5600   57.9640   -3.3890 O.2    25  CYS25      -0.2717
     18  CB        13.7850   56.5950   -0.2830 C.3    25  CYS25       0.0970
     19  SG        12.8520   55.0620   -0.3860 S.3    25  CYS25      -0.0800
     20  N         11.7540   56.6670   -2.8780 N.am   26  TRP26      -0.1976
     21  CA        11.4570   56.3200   -4.2860 C.3    26  TRP26       0.1640
     22  C         11.2260   57.5010   -5.2240 C.2    26  TRP26       0.2290
     23  O         11.5630   57.4360   -6.4370 O.2    26  TRP26      -0.2864
     24  CB        10.2110   55.4070   -4.3620 C.3    26  TRP26       0.0576
     25  CG         9.0440   56.0040   -3.6370 C.ar   26  TRP26       0.0006
     26  CD1        8.8400   56.1190   -2.3010 C.ar   26  TRP26       0.0946
     27  CD2        7.8900   56.5890   -4.2650 C.ar   26  TRP26       0.0152
     28  NE1        7.6260   56.7510   -2.0250 N.ar   26  TRP26      -0.2442
     29  CE2        7.0500   57.0560   -3.2380 C.ar   26  TRP26       0.0810
     30  CE3        7.5300   56.7970   -5.5870 C.ar   26  TRP26       0.0012
     31  CZ2        5.8350   57.6650   -3.4990 C.ar   26  TRP26       0.0191
     32  CZ3        6.3130   57.4300   -5.8430 C.ar   26  TRP26       0.0001
     33  CH2        5.4720   57.8560   -4.8120 C.ar   26  TRP26       0.0015
     34  N          2.8790   54.0850   -2.0280 N.3    61  TYR61      -0.1241
     35  CA         2.2190   54.3570   -0.7520 C.3    61  TYR61       0.1605
     36  C          2.6770   55.6090   -0.0060 C.2    61  TYR61       0.2264
     37  O          2.8180   55.5840    1.2320 O.2    61  TYR61      -0.2867
     38  CB         2.3270   53.1380    0.1940 C.3    61  TYR61       0.0534
     39  CG         2.3190   51.8560   -0.6090 C.ar   61  TYR61      -0.0201
     40  CD1        1.1930   51.3730   -1.2710 C.ar   61  TYR61      -0.0009
     41  CD2        3.5070   51.1420   -0.7520 C.ar   61  TYR61      -0.0009
     42  CE1        1.2370   50.1960   -2.0180 C.ar   61  TYR61       0.0417
     43  CE2        3.5930   49.9490   -1.4620 C.ar   61  TYR61       0.0417
     44  CZ         2.4430   49.4920   -2.1030 C.ar   61  TYR61       0.1957
     45  OH         2.4420   48.3320   -2.8250 O.3    61  TYR61      -0.2866
     46  N          4.9220   56.0560    2.9740 N.3    64  ASN64      -0.1225
     47  CA         5.0840   54.6650    3.4090 C.3    64  ASN64       0.1785
     48  C          5.9490   53.8460    2.4600 C.2    64  ASN64       0.2598
     49  O          6.0170   52.6140    2.7190 O.2    64  ASN64      -0.2718
     50  CB         3.7230   53.9630    3.6070 C.3    64  ASN64       0.1169
     51  CG         3.1990   54.4150    4.9600 C.2    64  ASN64       0.2627
     52  OD1        3.8820   54.2980    5.9920 O.2    64  ASN64      -0.2716
     53  ND2        2.0000   54.9820    4.8960 N.am   64  ASN64      -0.0877
     54  N          6.5640   54.4110    1.4500 N.am   65  GLY65      -0.1942
     55  CA         7.4040   53.5870    0.5390 C.3    65  GLY65       0.2014
     56  C          6.7420   53.6720   -0.8430 C.2    65  GLY65       0.2639
     57  O          5.6030   54.1850   -0.9800 O.2    65  GLY65      -0.2714
     58  N          7.4860   53.1660   -1.8050 N.am   66  GLY66      -0.1939
     59  CA         7.0480   53.1950   -3.1890 C.3    66  GLY66       0.2014
     60  C          8.0930   52.5860   -4.1020 C.2    66  GLY66       0.2638
     61  O          9.1060   52.0570   -3.6620 O.2    66  GLY66      -0.2714
     62  N          7.7760   52.6810   -5.3640 N.am   67  TYR67      -0.1973
     63  CA         8.4100   52.1980   -6.5540 C.3    67  TYR67       0.1639
     64  C          8.8830   53.2430   -7.5560 C.2    67  TYR67       0.2290
     65  O          8.0380   53.8570   -8.2270 O.2    67  TYR67      -0.2864
     66  CB         7.3860   51.3390   -7.3990 C.3    67  TYR67       0.0560
     67  CG         6.6770   50.3500   -6.4940 C.ar   67  TYR67      -0.0198
     68  CD1        7.3530   49.2930   -5.8970 C.ar   67  TYR67      -0.0009
     69  CD2        5.3170   50.5250   -6.1820 C.ar   67  TYR67      -0.0009
     70  CE1        6.7150   48.4040   -5.0340 C.ar   67  TYR67       0.0417
     71  CE2        4.6620   49.6630   -5.3040 C.ar   67  TYR67       0.0417
     72  CZ         5.3740   48.6120   -4.7310 C.ar   67  TYR67       0.1957
     73  OH         4.7540   47.7450   -3.8760 O.3    67  TYR67      -0.2866
     74  N         17.0960   44.7690    0.4740 N.3   157  VAL157     -0.1231
     75  CA        16.8660   46.1240   -0.0710 C.3   157  VAL157      0.1692
     76  C         15.6110   46.7710    0.4990 C.2   157  VAL157      0.2592
     77  O         14.5390   46.1610    0.6440 O.2   157  VAL157     -0.2718
     78  CB        17.0280   46.1210   -1.5910 C.3   157  VAL157      0.0266
     79  CG1       18.4040   45.5480   -1.9900 C.3   157  VAL157      0.0020
     80  CG2       15.8640   45.4540   -2.2970 C.3   157  VAL157      0.0020
     81  N         15.7850   48.0570    0.8220 N.am  158  ASP158     -0.1960
     82  CA        14.7100   48.8510    1.4260 C.3   158  ASP158      0.1840
     83  C         14.8180   50.3470    1.1750 C.2   158  ASP158      0.2622
     84  O         14.0310   51.1200    1.7310 O.2   158  ASP158     -0.2715
     85  CB        14.8660   48.6000    2.9490 C.3   158  ASP158      0.1450
     86  CG        16.2470   48.8990    3.5160 C.2   158  ASP158      0.3671
     87  OD1       17.0860   49.5890    2.8950 O.co2 158  ASP158     -0.2456
     88  OD2       16.5470   48.4660    4.6580 O.co2 158  ASP158     -0.2456
     89  N         15.7790   50.7490    0.3750 N.am  159  HIS159     -0.1959
     90  CA        16.0450   52.1910    0.1570 C.3   159  HIS159      0.1787
     91  C         16.3330   52.4630   -1.2970 C.2   159  HIS159      0.2620
     92  O         17.0800   51.6510   -1.8930 O.2   159  HIS159     -0.2715
     93  CB        17.2530   52.5330    1.0690 C.3   159  HIS159      0.0785
     94  CG        17.4730   54.0100    1.1550 C.ar  159  HIS159      0.0821
     95  ND1       16.4660   54.9020    1.3970 N.ar  159  HIS159     -0.2267
     96  CD2       18.5940   54.7320    0.9310 C.ar  159  HIS159      0.1154
     97  CE1       16.9780   56.1330    1.3680 C.ar  159  HIS159      0.1986
     98  NE2       18.2550   56.0570    1.0830 N.ar  159  HIS159     -0.2212
     99  N         15.6890   53.5070   -1.8140 N.am  160  ALA160     -0.1977
    100  CA        15.9390   53.8210   -3.2480 C.3   160  ALA160      0.1597
    101  C         16.8180   55.0900   -3.2880 C.2   160  ALA160      0.2287
    102  O         16.5230   56.0500   -2.5600 O.2   160  ALA160     -0.2864
    103  CB        14.6870   54.0090   -4.0590 C.3   160  ALA160      0.0319
    104  N         19.4190   62.0260    2.2650 N.3   177  TRP177     -0.1241
    105  CA        19.3680   62.2170    3.7210 C.3   177  TRP177      0.1605
    106  C         20.0230   63.5570    4.0510 C.2   177  TRP177      0.2264
    107  O         20.4100   63.6830    5.2170 O.2   177  TRP177     -0.2867
    108  CB        20.0110   61.0290    4.4180 C.3   177  TRP177      0.0550
    109  CG        19.1850   59.7930    4.3510 C.ar  177  TRP177      0.0003
    110  CD1       17.8950   59.6410    3.9090 C.ar  177  TRP177      0.0946
    111  CD2       19.6320   58.4960    4.7730 C.ar  177  TRP177      0.0152
    112  NE1       17.5180   58.3190    4.0540 N.ar  177  TRP177     -0.2442
    113  CE2       18.5540   57.6030    4.5800 C.ar  177  TRP177      0.0810
    114  CE3       20.8070   58.0260    5.3330 C.ar  177  TRP177      0.0012
    115  CZ2       18.6420   56.2690    4.9220 C.ar  177  TRP177      0.0191
    116  CZ3       20.9000   56.6960    5.6630 C.ar  177  TRP177      0.0001
    117  CH2       19.8390   55.8380    5.4530 C.ar  177  TRP177      0.0015
@<TRIPOS>BOND
     1    65    64    2
     2    64    63    1
     3    66    63    1
     4    66    67    1
     5    63    62    1
     6    67    69   ar
     7    67    68   ar
     8    23    22    2
     9    69    71   ar
    10    68    70   ar
    11    32    30   ar
    12    32    33   ar
    13    30    27   ar
    14    62    60   am
    15    71    72   ar
    16    22    21    1
    17    70    72   ar
    18    33    31   ar
    19    72    73    1
    20    24    21    1
    21    24    25    1
    22    21    20    1
    23    27    25   ar
    24    27    29   ar
    25    60    61    2
    26    60    59    1
    27   103   100    1
    28    25    26   ar
    29    31    29   ar
    30    17    16    2
    31   101   100    1
    32   101   102    2
    33   100    99    1
    34    29    28   ar
    35    59    58    1
    36    20    16   am
    37    45    44    1
    38    16    15    1
    39    26    28   ar
    40    80    78    1
    41    44    42   ar
    42    44    43   ar
    43    34    35    1
    44    42    40   ar
    45    79    78    1
    46    92    91    2
    47    99    91   am
    48    58    56   am
    49    78    75    1
    50    43    41   ar
    51    91    90    1
    52    40    39   ar
    53    15    14    1
    54    15    18    1
    55    57    56    2
    56    56    55    1
    57    41    39   ar
    58    35    36    1
    59    35    38    1
    60    39    38    1
    61    19    18    1
    62    75    74    1
    63    75    76    1
    64    36    37    2
    65    90    89    1
    66    90    93    1
    67    89    83   am
    68    76    77    2
    69    76    81   am
    70    55    54    1
    71    81    82    1
    72    96    98   ar
    73    96    94   ar
    74    13    12    2
    75    93    94    1
    76    98    97   ar
    77    94    95   ar
    78    83    82    1
    79    83    84    2
    80    97    95   ar
    81    82    85    1
    82    54    48   am
    83     8     7    2
    84    12    11    1
    85     5     2    1
    86     5     6    1
    87     7     9   am
    88     7     6    1
    89   104   105    1
    90     2     1    1
    91     2     3    1
    92    48    49    2
    93    48    47    1
    94    87    86   ar
    95    85    86    1
    96    46    47    1
    97    11    10    1
    98    47    50    1
    99    86    88   ar
   100    50    51    1
   101     3     4    2
   102   105   106    1
   103   105   108    1
   104   110   112   ar
   105   110   109   ar
   106   106   107    2
   107   112   113   ar
   108   109   108    1
   109   109   111   ar
   110   113   111   ar
   111   113   115   ar
   112   111   114   ar
   113    53    51   am
   114   115   117   ar
   115    51    52    2
   116   114   116   ar
   117   117   116   ar
