@<TRIPOS>MOLECULE
tmp/1pe7A00.pdb
 126 125 0 0 0
SMALL
GASTEIGER

@<TRIPOS>ATOM
      1  N         33.0070   36.7060    0.1190 N.3   112  ASN112     -0.1225
      2  CA        33.2940   37.7060   -0.9020 C.3   112  ASN112      0.1785
      3  C         32.1520   38.7280   -0.8840 C.2   112  ASN112      0.2597
      4  O         31.1340   38.5650   -0.1600 O.2   112  ASN112     -0.2718
      5  CB        33.3320   37.0440   -2.2860 C.3   112  ASN112      0.1169
      6  CG        34.1980   37.8080   -3.2980 C.2   112  ASN112      0.2627
      7  OD1       34.7460   38.8550   -3.0180 O.2   112  ASN112     -0.2716
      8  ND2       34.3250   37.3330   -4.5110 N.am  112  ASN112     -0.0877
      9  N         32.3550   39.7570   -1.7060 N.am  113  ALA113     -0.1966
     10  CA        31.4010   40.8590   -1.9400 C.3   113  ALA113      0.1728
     11  C         31.5630   41.2560   -3.4000 C.2   113  ALA113      0.2616
     12  O         32.6520   41.0980   -3.9770 O.2   113  ALA113     -0.2715
     13  CB        31.5840   42.0600   -1.0650 C.3   113  ALA113      0.0334
     14  N         30.5030   41.7670   -4.0020 N.am  114  PHE114     -0.1960
     15  CA        30.6590   42.1390   -5.3980 C.3   114  PHE114      0.1771
     16  C         29.5110   43.0410   -5.8620 C.2   114  PHE114      0.2619
     17  O         28.4960   43.1590   -5.2060 O.2   114  PHE114     -0.2715
     18  CB        30.6040   40.8350   -6.2330 C.3   114  PHE114      0.0574
     19  CG        29.3700   39.9120   -6.1290 C.ar  114  PHE114     -0.0200
     20  CD1       29.2670   38.9350   -5.1260 C.ar  114  PHE114     -0.0042
     21  CD2       28.3610   39.9600   -7.1090 C.ar  114  PHE114     -0.0042
     22  CE1       28.1900   38.0370   -5.0650 C.ar  114  PHE114     -0.0003
     23  CE2       27.2520   39.1020   -7.0570 C.ar  114  PHE114     -0.0003
     24  CZ        27.1730   38.1470   -6.0310 C.ar  114  PHE114     -0.0000
     25  N         29.7030   43.6570   -7.0340 N.am  115  TRP115     -0.1974
     26  CA        28.7060   44.4820   -7.7350 C.3   115  TRP115      0.1640
     27  C         28.2470   43.6070   -8.9130 C.2   115  TRP115      0.2290
     28  O         29.0640   43.0630   -9.6540 O.2   115  TRP115     -0.2864
     29  CB        29.4350   45.7100   -8.2360 C.3   115  TRP115      0.0576
     30  CG        28.6050   46.4320   -9.2370 C.ar  115  TRP115      0.0006
     31  CD1       28.8520   46.4580  -10.5600 C.ar  115  TRP115      0.0946
     32  CD2       27.4810   47.3170   -8.9940 C.ar  115  TRP115      0.0152
     33  NE1       27.9410   47.3120  -11.1980 N.ar  115  TRP115     -0.2442
     34  CE2       27.0750   47.8410  -10.2570 C.ar  115  TRP115      0.0810
     35  CE3       26.7800   47.7750   -7.8290 C.ar  115  TRP115      0.0012
     36  CZ2       26.0090   48.7660  -10.3840 C.ar  115  TRP115      0.0191
     37  CZ3       25.7310   48.6860   -7.9710 C.ar  115  TRP115      0.0001
     38  CH2       25.3160   49.1510   -9.2560 C.ar  115  TRP115      0.0015
     39  N         34.8340   49.8490   -2.1960 N.3   142  HIS142     -0.1226
     40  CA        35.4250   49.1940   -3.3810 C.3   142  HIS142      0.1752
     41  C         34.2680   48.7260   -4.3090 C.2   142  HIS142      0.2595
     42  O         34.2950   48.8660   -5.5370 O.2   142  HIS142     -0.2718
     43  CB        36.2530   47.9850   -2.8590 C.3   142  HIS142      0.0759
     44  CG        36.8290   47.0680   -3.9210 C.ar  142  HIS142      0.0818
     45  ND1       38.2240   47.0670   -4.2270 N.ar  142  HIS142     -0.2268
     46  CD2       36.1890   46.1210   -4.7360 C.ar  142  HIS142      0.1154
     47  CE1       38.4000   46.1010   -5.1880 C.ar  142  HIS142      0.1986
     48  NE2       37.2040   45.5460   -5.5210 N.ar  142  HIS142     -0.2212
     49  N         33.2380   48.1710   -3.6710 N.am  143  GLU143     -0.1979
     50  CA        32.1070   47.6790   -4.4700 C.3   143  GLU143      0.1602
     51  C         31.3970   48.8120   -5.2160 C.2   143  GLU143      0.2287
     52  O         31.1220   48.7710   -6.4550 O.2   143  GLU143     -0.2864
     53  CB        31.1080   46.8970   -3.6350 C.3   143  GLU143      0.0415
     54  CG        31.7430   45.6750   -2.8820 C.3   143  GLU143      0.1163
     55  CD        32.6650   44.7970   -3.7440 C.2   143  GLU143      0.3649
     56  OE1       32.6310   44.6470   -4.9410 O.co2 143  GLU143     -0.2457
     57  OE2       33.6160   44.2880   -3.0480 O.co2 143  GLU143     -0.2457
     58  N         33.1100   50.0530   -8.2170 N.3   146  HIS146     -0.1241
     59  CA        33.0350   49.3050   -9.4670 C.3   146  HIS146      0.1621
     60  C         31.8460   49.8720  -10.2960 C.2   146  HIS146      0.2264
     61  O         31.8240   49.8960  -11.4980 O.2   146  HIS146     -0.2867
     62  CB        32.7040   47.8390   -9.1740 C.3   146  HIS146      0.0745
     63  CG        33.9660   46.9870   -8.9430 C.ar  146  HIS146      0.0817
     64  ND1       35.0590   47.0610   -9.7900 N.ar  146  HIS146     -0.2268
     65  CD2       34.2870   46.0880   -7.9480 C.ar  146  HIS146      0.1154
     66  CE1       36.0010   46.2100   -9.3420 C.ar  146  HIS146      0.1986
     67  NE2       35.5470   45.6030   -8.2410 N.ar  146  HIS146     -0.2212
     68  N         36.6800   43.8120  -17.6180 N.3   157  TYR157     -0.1241
     69  CA        37.1810   43.0120  -16.5210 C.3   157  TYR157      0.1605
     70  C         38.1960   41.9510  -16.8720 C.2   157  TYR157      0.2264
     71  O         38.0680   40.7490  -16.5210 O.2   157  TYR157     -0.2867
     72  CB        35.9910   42.5420  -15.6110 C.3   157  TYR157      0.0534
     73  CG        36.3490   42.4770  -14.1330 C.ar  157  TYR157     -0.0201
     74  CD1       36.6750   43.6220  -13.3920 C.ar  157  TYR157     -0.0009
     75  CD2       36.3080   41.2690  -13.4280 C.ar  157  TYR157     -0.0009
     76  CE1       36.9610   43.5620  -12.0220 C.ar  157  TYR157      0.0417
     77  CE2       36.5860   41.1800  -12.0560 C.ar  157  TYR157      0.0417
     78  CZ        36.9330   42.3360  -11.3500 C.ar  157  TYR157      0.1957
     79  OH        37.2210   42.2530  -10.0280 O.3   157  TYR157     -0.2866
     80  N         40.2300   47.1100  -10.9590 N.3   166  GLU166     -0.1245
     81  CA        40.3870   46.6820   -9.5090 C.3   166  GLU166      0.1567
     82  C         41.1710   47.7220   -8.6610 C.2   166  GLU166      0.2260
     83  O         40.7780   48.0640   -7.5840 O.2   166  GLU166     -0.2867
     84  CB        41.1780   45.3390   -9.4470 C.3   166  GLU166      0.0388
     85  CG        40.2260   44.1450   -9.5450 C.3   166  GLU166      0.1160
     86  CD        39.1720   44.3100   -8.4410 C.2   166  GLU166      0.3649
     87  OE1       39.4330   44.4760   -7.2740 O.co2 166  GLU166     -0.2457
     88  OE2       38.0400   44.0560   -8.8900 O.co2 166  GLU166     -0.2457
     89  N         45.0090   42.8030    0.8640 N.3   203  ARG203     -0.1245
     90  CA        45.9800   43.4110   -0.0450 C.3   203  ARG203      0.1563
     91  C         46.5440   44.6380    0.6580 C.2   203  ARG203      0.2260
     92  O         45.9090   45.1930    1.5620 O.2   203  ARG203     -0.2867
     93  CB        45.3260   43.9770   -1.3270 C.3   203  ARG203      0.0307
     94  CG        44.7840   42.9270   -2.2970 C.3   203  ARG203      0.0489
     95  CD        44.2720   43.5630   -3.6180 C.3   203  ARG203      0.2205
     96  NE        42.9530   44.1840   -3.5460 N.pl3 203  ARG203     -0.0865
     97  CZ        41.8240   43.4380   -3.5460 C.cat 203  ARG203      0.5346
     98  NH1       41.7940   42.1020   -3.5040 N.pl3 203  ARG203      0.1354
     99  NH2       40.6760   44.0300   -3.5900 N.pl3 203  ARG203      0.1354
    100  N         44.5640   32.8250  -14.8070 N.3   225  GLN225     -0.1231
    101  CA        43.7700   32.8420  -13.6010 C.3   225  GLN225      0.1698
    102  C         43.2880   34.3040  -13.3290 C.2   225  GLN225      0.2592
    103  O         43.9260   35.3230  -13.7210 O.2   225  GLN225     -0.2718
    104  CB        44.7350   32.2420  -12.5010 C.3   225  GLN225      0.0381
    105  CG        44.3320   32.1510  -11.0070 C.3   225  GLN225      0.0905
    106  CD        45.5300   31.8650  -10.0830 C.2   225  GLN225      0.2608
    107  OE1       45.6820   32.4770   -9.0010 O.2   225  GLN225     -0.2717
    108  NE2       46.4140   30.9540  -10.5060 N.am  225  GLN225     -0.0878
    109  N         42.1420   34.4030  -12.6220 N.am  226  ASP226     -0.1974
    110  CA        41.6180   35.7100  -12.1830 C.3   226  ASP226      0.1709
    111  C         41.5420   36.6420  -13.3220 C.2   226  ASP226      0.2293
    112  O         41.9520   37.8000  -13.3060 O.2   226  ASP226     -0.2864
    113  CB        42.5680   36.2340  -11.0950 C.3   226  ASP226      0.1436
    114  CG        42.1080   37.4650  -10.3600 C.2   226  ASP226      0.3671
    115  OD1       40.9750   37.7930  -10.3190 O.co2 226  ASP226     -0.2456
    116  OD2       43.0450   38.1640   -9.7770 O.co2 226  ASP226     -0.2456
    117  N         43.1290   40.8080   -9.9630 N.3   231  HIS231     -0.1241
    118  CA        43.2970   41.0910   -8.5460 C.3   231  HIS231      0.1621
    119  C         44.7790   41.0230   -8.1560 C.2   231  HIS231      0.2264
    120  O         45.1390   41.3520   -7.0120 O.2   231  HIS231     -0.2867
    121  CB        42.4490   40.2800   -7.5030 C.3   231  HIS231      0.0745
    122  CG        40.9830   40.5250   -7.6660 C.ar  231  HIS231      0.0817
    123  ND1       40.2550   39.8770   -8.6640 N.ar  231  HIS231     -0.2268
    124  CD2       40.1190   41.2970   -6.9270 C.ar  231  HIS231      0.1154
    125  CE1       38.9750   40.2800   -8.5410 C.ar  231  HIS231      0.1986
    126  NE2       38.8690   41.1390   -7.5150 N.ar  231  HIS231     -0.2212
@<TRIPOS>BOND
     1    68    69    1
     2    70    69    1
     3    70    71    2
     4    69    72    1
     5    72    73    1
     6   100   101    1
     7    73    75   ar
     8    73    74   ar
     9   103   102    2
    10   101   102    1
    11   101   104    1
    12    75    77   ar
    13    74    76   ar
    14   102   109   am
    15   111   112    2
    16   111   110    1
    17   109   110    1
    18   104   105    1
    19   110   113    1
    20    77    78   ar
    21    76    78   ar
    22    61    60    2
    23    78    79    1
    24    33    31   ar
    25    33    34   ar
    26   113   114    1
    27   105   106    1
    28    80    81    1
    29    31    30   ar
    30   108   106   am
    31    36    34   ar
    32    36    38   ar
    33   114   115   ar
    34   114   116   ar
    35    60    59    1
    36    34    32   ar
    37   106   107    2
    38   117   118    1
    39    64    66   ar
    40    64    63   ar
    41    28    27    2
    42    85    84    1
    43    85    86    1
    44    81    84    1
    45    81    82    1
    46    59    62    1
    47    59    58    1
    48    66    67   ar
    49    38    37   ar
    50    30    32   ar
    51    30    29    1
    52    62    63    1
    53    32    35   ar
    54    63    65   ar
    55    27    26    1
    56    88    86   ar
    57   123   125   ar
    58   123   122   ar
    59    82    83    2
    60   118   119    1
    61   118   121    1
    62   125   126   ar
    63    86    87   ar
    64    67    65   ar
    65    29    26    1
    66   119   120    2
    67    37    35   ar
    68    26    25    1
    69   122   121    1
    70   122   124   ar
    71   126   124   ar
    72    21    23   ar
    73    21    19   ar
    74    23    24   ar
    75    25    16   am
    76    52    51    2
    77    18    19    1
    78    18    15    1
    79    19    20   ar
    80    24    22   ar
    81    16    15    1
    82    16    17    2
    83    42    41    2
    84    48    47   ar
    85    48    46   ar
    86    15    14    1
    87    51    50    1
    88    47    45   ar
    89    20    22   ar
    90    56    55   ar
    91    46    44   ar
    92     8     6   am
    93    50    49    1
    94    50    53    1
    95    41    49   am
    96    41    40    1
    97    45    44   ar
    98    14    11   am
    99    12    11    2
   100    44    43    1
   101    55    57   ar
   102    55    54    1
   103    53    54    1
   104    95    96    1
   105    95    94    1
   106    99    97    1
   107    97    96    2
   108    97    98    1
   109    11    10    1
   110    40    43    1
   111    40    39    1
   112     6     7    2
   113     6     5    1
   114    94    93    1
   115     5     2    1
   116    10     9    1
   117    10    13    1
   118     9     3   am
   119    93    90    1
   120     2     3    1
   121     2     1    1
   122     3     4    2
   123    90    91    1
   124    90    89    1
   125    91    92    2
