@<TRIPOS>MOLECULE
tmp/1pe8A00.pdb
 117 116 0 0 0
SMALL
GASTEIGER

@<TRIPOS>ATOM
      1  N         32.9020   36.6450    0.1170 N.3   112  ASN112     -0.1225
      2  CA        33.1730   37.6320   -0.9040 C.3   112  ASN112      0.1785
      3  C         32.0650   38.6860   -0.8650 C.2   112  ASN112      0.2597
      4  O         31.0500   38.5240   -0.1170 O.2   112  ASN112     -0.2718
      5  CB        33.2740   36.9780   -2.2820 C.3   112  ASN112      0.1169
      6  CG        34.0140   37.8310   -3.3220 C.2   112  ASN112      0.2627
      7  OD1       34.7510   38.7460   -3.0500 O.2   112  ASN112     -0.2716
      8  ND2       33.8560   37.5410   -4.5830 N.am  112  ASN112     -0.0877
      9  N         32.3000   39.7160   -1.6730 N.am  113  ALA113     -0.1966
     10  CA        31.3800   40.8490   -1.9250 C.3   113  ALA113      0.1728
     11  C         31.5520   41.2170   -3.3810 C.2   113  ALA113      0.2616
     12  O         32.6470   41.0330   -3.9570 O.2   113  ALA113     -0.2715
     13  CB        31.5240   42.0330   -1.0090 C.3   113  ALA113      0.0334
     14  N         30.4910   41.7030   -4.0350 N.am  114  PHE114     -0.1960
     15  CA        30.6100   42.0700   -5.4190 C.3   114  PHE114      0.1771
     16  C         29.4490   42.9940   -5.8620 C.2   114  PHE114      0.2619
     17  O         28.4670   43.1770   -5.1690 O.2   114  PHE114     -0.2715
     18  CB        30.5700   40.8010   -6.2830 C.3   114  PHE114      0.0574
     19  CG        29.3070   39.8720   -6.1620 C.ar  114  PHE114     -0.0200
     20  CD1       29.2350   38.8860   -5.1600 C.ar  114  PHE114     -0.0042
     21  CD2       28.2900   39.9140   -7.1260 C.ar  114  PHE114     -0.0042
     22  CE1       28.1770   37.9700   -5.0360 C.ar  114  PHE114     -0.0003
     23  CE2       27.2060   39.0350   -7.0310 C.ar  114  PHE114     -0.0003
     24  CZ        27.1580   38.0880   -5.9960 C.ar  114  PHE114     -0.0000
     25  N         29.6280   43.5860   -7.0550 N.am  115  TRP115     -0.1974
     26  CA        28.6390   44.4530   -7.7560 C.3   115  TRP115      0.1640
     27  C         28.2050   43.5650   -8.9260 C.2   115  TRP115      0.2290
     28  O         29.0500   43.0620   -9.6990 O.2   115  TRP115     -0.2864
     29  CB        29.3580   45.6780   -8.2880 C.3   115  TRP115      0.0576
     30  CG        28.5460   46.3890   -9.2980 C.ar  115  TRP115      0.0006
     31  CD1       28.7570   46.4530  -10.6310 C.ar  115  TRP115      0.0946
     32  CD2       27.4420   47.2600   -9.0070 C.ar  115  TRP115      0.0152
     33  NE1       27.8290   47.2860  -11.2460 N.ar  115  TRP115     -0.2442
     34  CE2       27.0240   47.8130  -10.2590 C.ar  115  TRP115      0.0810
     35  CE3       26.8230   47.6800   -7.7900 C.ar  115  TRP115      0.0012
     36  CZ2       25.9730   48.7530  -10.3500 C.ar  115  TRP115      0.0191
     37  CZ3       25.8000   48.6270   -7.9260 C.ar  115  TRP115      0.0001
     38  CH2       25.3370   49.0550   -9.2020 C.ar  115  TRP115      0.0015
     39  N         34.7930   49.8710   -2.2400 N.3   142  HIS142     -0.1226
     40  CA        35.4190   49.1820   -3.4100 C.3   142  HIS142      0.1752
     41  C         34.2710   48.6980   -4.3340 C.2   142  HIS142      0.2595
     42  O         34.2840   48.8580   -5.5570 O.2   142  HIS142     -0.2718
     43  CB        36.2440   47.9390   -2.8540 C.3   142  HIS142      0.0759
     44  CG        36.8060   46.9970   -3.9170 C.ar  142  HIS142      0.0818
     45  ND1       38.1820   46.9630   -4.2280 N.ar  142  HIS142     -0.2268
     46  CD2       36.1510   46.0910   -4.7360 C.ar  142  HIS142      0.1154
     47  CE1       38.3040   46.0350   -5.2280 C.ar  142  HIS142      0.1986
     48  NE2       37.0870   45.5010   -5.5680 N.ar  142  HIS142     -0.2212
     49  N         33.2200   48.1780   -3.6480 N.am  143  GLU143     -0.1979
     50  CA        32.0890   47.6750   -4.4320 C.3   143  GLU143      0.1602
     51  C         31.3510   48.7800   -5.2080 C.2   143  GLU143      0.2287
     52  O         31.0610   48.6900   -6.4430 O.2   143  GLU143     -0.2864
     53  CB        31.0790   46.8630   -3.5900 C.3   143  GLU143      0.0415
     54  CG        31.6800   45.5800   -2.8950 C.3   143  GLU143      0.1163
     55  CD        32.6310   44.7360   -3.8010 C.2   143  GLU143      0.3649
     56  OE1       32.5800   44.6580   -4.9770 O.co2 143  GLU143     -0.2457
     57  OE2       33.6310   44.2230   -3.1700 O.co2 143  GLU143     -0.2457
     58  N         33.0260   50.0210   -8.2570 N.3   146  HIS146     -0.1241
     59  CA        32.9810   49.2700   -9.5140 C.3   146  HIS146      0.1621
     60  C         31.7920   49.8330  -10.3270 C.2   146  HIS146      0.2264
     61  O         31.7730   49.8760  -11.5090 O.2   146  HIS146     -0.2867
     62  CB        32.6620   47.7730   -9.1890 C.3   146  HIS146      0.0745
     63  CG        33.9300   46.9110   -8.9190 C.ar  146  HIS146      0.0817
     64  ND1       35.0010   46.9640   -9.8170 N.ar  146  HIS146     -0.2268
     65  CD2       34.2670   46.0330   -7.9120 C.ar  146  HIS146      0.1154
     66  CE1       35.9940   46.1350   -9.3620 C.ar  146  HIS146      0.1986
     67  NE2       35.5480   45.5670   -8.2250 N.ar  146  HIS146     -0.2212
     68  N         36.6950   43.7950  -17.6570 N.3   157  TYR157     -0.1241
     69  CA        37.2110   43.0580  -16.5420 C.3   157  TYR157      0.1605
     70  C         38.1440   41.9300  -16.8650 C.2   157  TYR157      0.2264
     71  O         37.9550   40.7360  -16.4610 O.2   157  TYR157     -0.2867
     72  CB        36.0430   42.5690  -15.6450 C.3   157  TYR157      0.0534
     73  CG        36.4150   42.4810  -14.1490 C.ar  157  TYR157     -0.0201
     74  CD1       36.7570   43.6070  -13.3730 C.ar  157  TYR157     -0.0009
     75  CD2       36.3470   41.2610  -13.4600 C.ar  157  TYR157     -0.0009
     76  CE1       37.0610   43.5280  -12.0040 C.ar  157  TYR157      0.0417
     77  CE2       36.5660   41.1590  -12.0750 C.ar  157  TYR157      0.0417
     78  CZ        36.9330   42.2940  -11.3460 C.ar  157  TYR157      0.1957
     79  OH        37.1940   42.1730  -10.0150 O.3   157  TYR157     -0.2866
     80  N         40.1860   47.1020  -11.0190 N.3   166  GLU166     -0.1245
     81  CA        40.3430   46.6780   -9.5970 C.3   166  GLU166      0.1567
     82  C         41.1250   47.7160   -8.7400 C.2   166  GLU166      0.2260
     83  O         40.7560   48.0330   -7.6380 O.2   166  GLU166     -0.2867
     84  CB        41.1130   45.2830   -9.4880 C.3   166  GLU166      0.0388
     85  CG        40.1240   44.1170   -9.5640 C.3   166  GLU166      0.1160
     86  CD        39.1440   44.2910   -8.3760 C.2   166  GLU166      0.3649
     87  OE1       39.5280   44.3700   -7.2190 O.co2 166  GLU166     -0.2457
     88  OE2       37.9600   44.1210   -8.7230 O.co2 166  GLU166     -0.2457
     89  N         44.9630   42.7500    0.9040 N.3   203  ARG203     -0.1245
     90  CA        45.9110   43.3120   -0.0590 C.3   203  ARG203      0.1563
     91  C         46.4750   44.5420    0.6290 C.2   203  ARG203      0.2260
     92  O         45.8670   45.0960    1.5700 O.2   203  ARG203     -0.2867
     93  CB        45.2210   43.8620   -1.3450 C.3   203  ARG203      0.0307
     94  CG        44.7790   42.7780   -2.3390 C.3   203  ARG203      0.0489
     95  CD        44.2280   43.4520   -3.6160 C.3   203  ARG203      0.2205
     96  NE        42.8950   44.0420   -3.4870 N.pl3 203  ARG203     -0.0865
     97  CZ        41.7730   43.3290   -3.5450 C.cat 203  ARG203      0.5346
     98  NH1       41.7560   42.0020   -3.5640 N.pl3 203  ARG203      0.1354
     99  NH2       40.6090   43.9480   -3.5890 N.pl3 203  ARG203      0.1354
    100  N         42.0850   34.3600  -12.5520 N.3   226  ASP226     -0.1239
    101  CA        41.5380   35.6550  -12.0960 C.3   226  ASP226      0.1674
    102  C         41.4040   36.5960  -13.2160 C.2   226  ASP226      0.2266
    103  O         41.8500   37.7300  -13.1720 O.2   226  ASP226     -0.2867
    104  CB        42.5520   36.1970  -11.0800 C.3   226  ASP226      0.1410
    105  CG        42.1030   37.4320  -10.3450 C.2   226  ASP226      0.3668
    106  OD1       40.9670   37.6830  -10.1190 O.co2 226  ASP226     -0.2456
    107  OD2       43.0430   38.1910   -9.8930 O.co2 226  ASP226     -0.2456
    108  N         43.1180   40.8510   -9.9100 N.3   231  HIS231     -0.1241
    109  CA        43.2980   41.1080   -8.4960 C.3   231  HIS231      0.1621
    110  C         44.7980   41.0280   -8.0880 C.2   231  HIS231      0.2264
    111  O         45.1040   41.3190   -6.9060 O.2   231  HIS231     -0.2867
    112  CB        42.4760   40.2670   -7.4520 C.3   231  HIS231      0.0745
    113  CG        41.0120   40.5200   -7.6260 C.ar  231  HIS231      0.0817
    114  ND1       40.2950   39.8580   -8.6100 N.ar  231  HIS231     -0.2268
    115  CD2       40.1620   41.3780   -6.9410 C.ar  231  HIS231      0.1154
    116  CE1       39.0150   40.3030   -8.5330 C.ar  231  HIS231      0.1986
    117  NE2       38.9130   41.2090   -7.5610 N.ar  231  HIS231     -0.2212
@<TRIPOS>BOND
     1    68    69    1
     2    70    69    1
     3    70    71    2
     4    69    72    1
     5    72    73    1
     6    73    75   ar
     7    73    74   ar
     8    75    77   ar
     9    74    76   ar
    10   102   103    2
    11   102   101    1
    12   100   101    1
    13   101   104    1
    14    77    78   ar
    15    76    78   ar
    16    61    60    2
    17    78    79    1
    18    33    31   ar
    19    33    34   ar
    20   104   105    1
    21    80    81    1
    22    31    30   ar
    23    36    34   ar
    24    36    38   ar
    25   105   106   ar
    26   105   107   ar
    27    60    59    1
    28    34    32   ar
    29   108   109    1
    30    64    66   ar
    31    64    63   ar
    32    28    27    2
    33    81    84    1
    34    81    82    1
    35    85    84    1
    36    85    86    1
    37    59    62    1
    38    59    58    1
    39    66    67   ar
    40    30    32   ar
    41    30    29    1
    42    38    37   ar
    43    62    63    1
    44    32    35   ar
    45    27    26    1
    46    63    65   ar
    47    82    83    2
    48    88    86   ar
    49   114   116   ar
    50   114   113   ar
    51   116   117   ar
    52   109   110    1
    53   109   112    1
    54    86    87   ar
    55    29    26    1
    56    67    65   ar
    57   110   111    2
    58    37    35   ar
    59    26    25    1
    60   113   112    1
    61   113   115   ar
    62   117   115   ar
    63    21    23   ar
    64    21    19   ar
    65    25    16   am
    66    23    24   ar
    67    52    51    2
    68    18    19    1
    69    18    15    1
    70    19    20   ar
    71    24    22   ar
    72    16    15    1
    73    16    17    2
    74    48    47   ar
    75    48    46   ar
    76    42    41    2
    77    15    14    1
    78    47    45   ar
    79    51    50    1
    80    20    22   ar
    81    56    55   ar
    82    46    44   ar
    83     8     6   am
    84    50    49    1
    85    50    53    1
    86    41    49   am
    87    41    40    1
    88    45    44   ar
    89    14    11   am
    90    12    11    2
    91    44    43    1
    92    55    57   ar
    93    55    54    1
    94    95    96    1
    95    95    94    1
    96    53    54    1
    97    99    97    1
    98    98    97    1
    99    97    96    2
   100    40    43    1
   101    40    39    1
   102    11    10    1
   103     6     7    2
   104     6     5    1
   105    94    93    1
   106     5     2    1
   107    10     9    1
   108    10    13    1
   109     9     3   am
   110    93    90    1
   111     2     3    1
   112     2     1    1
   113     3     4    2
   114    90    91    1
   115    90    89    1
   116    91    92    2
