@<TRIPOS>MOLECULE
tmp/1pegA00.pdb
 179 181 0 0 0
SMALL
GASTEIGER

@<TRIPOS>ATOM
      1  N         17.3990   15.0510   -7.0240 N.3   128  ARG128     -0.1231
      2  CA        18.6500   14.9260   -6.3140 C.3   128  ARG128      0.1694
      3  C         19.4630   13.7450   -6.7530 C.2   128  ARG128      0.2593
      4  O         20.3820   13.3280   -6.0270 O.2   128  ARG128     -0.2718
      5  CB        18.3740   14.7670   -4.8260 C.3   128  ARG128      0.0321
      6  CG        18.0010   16.0710   -4.1240 C.3   128  ARG128      0.0489
      7  CD        16.9260   15.8800   -3.0570 C.3   128  ARG128      0.2205
      8  NE        15.9360   14.8590   -3.4100 N.pl3 128  ARG128     -0.0865
      9  CZ        15.5520   13.8730   -2.6010 C.cat 128  ARG128      0.5346
     10  NH1       16.0730   13.7660   -1.3820 N.pl3 128  ARG128      0.1354
     11  NH2       14.6410   12.9960   -3.0080 N.pl3 128  ARG128      0.1354
     12  N         19.1650   13.1710   -7.9150 N.am  129  GLY129     -0.1942
     13  CA        19.9460   12.0580   -8.4180 C.3   129  GLY129      0.2014
     14  C         19.6240   10.7610   -7.7290 C.2   129  GLY129      0.2638
     15  O         18.4630   10.4330   -7.5180 O.2   129  GLY129     -0.2714
     16  N         20.6610   10.0090   -7.3900 N.am  130  TRP130     -0.1973
     17  CA        20.4660    8.7440   -6.7080 C.3   130  TRP130      0.1640
     18  C         20.1230    9.0450   -5.2610 C.2   130  TRP130      0.2290
     19  O         20.5120   10.0870   -4.7180 O.2   130  TRP130     -0.2864
     20  CB        21.7380    7.9070   -6.7580 C.3   130  TRP130      0.0576
     21  CG        22.1510    7.5320   -8.1200 C.ar  130  TRP130      0.0006
     22  CD1       23.1530    8.0880   -8.8520 C.ar  130  TRP130      0.0946
     23  CD2       21.5720    6.5070   -8.9260 C.ar  130  TRP130      0.0152
     24  NE1       23.2390    7.4650  -10.0720 N.ar  130  TRP130     -0.2442
     25  CE2       22.2780    6.4930  -10.1460 C.ar  130  TRP130      0.0810
     26  CE3       20.5330    5.5950   -8.7440 C.ar  130  TRP130      0.0012
     27  CZ2       21.9740    5.6020  -11.1710 C.ar  130  TRP130      0.0191
     28  CZ3       20.2270    4.7080   -9.7690 C.ar  130  TRP130      0.0001
     29  CH2       20.9470    4.7210  -10.9670 C.ar  130  TRP130      0.0015
     30  N         28.9100    4.7270    7.2870 N.3   147  TYR147     -0.1241
     31  CA        29.5590    5.3990    6.1780 C.3   147  TYR147      0.1605
     32  C         31.0000    4.9510    5.9750 C.2   147  TYR147      0.2264
     33  O         31.8490    5.1400    6.8270 O.2   147  TYR147     -0.2867
     34  CB        29.5080    6.8980    6.3890 C.3   147  TYR147      0.0534
     35  CG        29.6440    7.6930    5.1160 C.ar  147  TYR147     -0.0201
     36  CD1       28.5240    8.1080    4.4070 C.ar  147  TYR147     -0.0009
     37  CD2       30.8970    8.0680    4.6390 C.ar  147  TYR147     -0.0009
     38  CE1       28.6490    8.8850    3.2540 C.ar  147  TYR147      0.0417
     39  CE2       31.0320    8.8450    3.4880 C.ar  147  TYR147      0.0417
     40  CZ        29.9050    9.2490    2.8010 C.ar  147  TYR147      0.1957
     41  OH        30.0250   10.0130    1.6600 O.3   147  TYR147     -0.2866
     42  N         31.3980   18.7750   -8.4330 N.3   170  LYS170     -0.1231
     43  CA        31.2540   19.3300   -7.0950 C.3   170  LYS170      0.1693
     44  C         30.8370   18.2490   -6.0950 C.2   170  LYS170      0.2592
     45  O         31.2330   18.3060   -4.9270 O.2   170  LYS170     -0.2718
     46  CB        30.2400   20.4690   -7.1050 C.3   170  LYS170      0.0285
     47  CG        30.6270   21.6060   -8.0370 C.3   170  LYS170      0.0035
     48  CD        31.8910   22.3000   -7.6360 C.3   170  LYS170      0.0206
     49  CE        31.8500   23.7710   -8.0310 C.3   170  LYS170      0.1093
     50  NZ        32.5380   24.0090   -9.3190 N.3   170  LYS170     -0.1314
     51  N         30.0500   17.2720   -6.5550 N.am  171  ASP171     -0.1960
     52  CA        29.5860   16.1710   -5.7070 C.3   171  ASP171      0.1840
     53  C         30.6000   15.8760   -4.6160 C.2   171  ASP171      0.2622
     54  O         31.6260   15.2540   -4.8790 O.2   171  ASP171     -0.2715
     55  CB        29.3940   14.9040   -6.5340 C.3   171  ASP171      0.1450
     56  CG        28.1080   14.9090   -7.3110 C.2   171  ASP171      0.3671
     57  OD1       28.0880   14.3430   -8.4250 O.co2 171  ASP171     -0.2456
     58  OD2       27.1200   15.4810   -6.8060 O.co2 171  ASP171     -0.2456
     59  N         30.3210   16.3260   -3.3950 N.am  172  VAL172     -0.1963
     60  CA        31.2320   16.0860   -2.2870 C.3   172  VAL172      0.1727
     61  C         30.8970   14.7790   -1.5980 C.2   172  VAL172      0.2616
     62  O         29.7370   14.4670   -1.3550 O.2   172  VAL172     -0.2715
     63  CB        31.1790   17.2110   -1.2560 C.3   172  VAL172      0.0290
     64  CG1       31.5530   16.6790    0.1100 C.3   172  VAL172      0.0023
     65  CG2       32.1370   18.3020   -1.6620 C.3   172  VAL172      0.0023
     66  N         31.9280   14.0180   -1.2710 N.am  173  TYR173     -0.1974
     67  CA        31.7150   12.7460   -0.6240 C.3   173  TYR173      0.1639
     68  C         32.6440   12.5520    0.5470 C.2   173  TYR173      0.2290
     69  O         32.9080   11.4230    0.9410 O.2   173  TYR173     -0.2864
     70  CB        31.9450   11.6270   -1.6150 C.3   173  TYR173      0.0560
     71  CG        31.0310   11.6730   -2.7950 C.ar  173  TYR173     -0.0198
     72  CD1       31.4740   12.1480   -4.0210 C.ar  173  TYR173     -0.0009
     73  CD2       29.7450   11.1740   -2.7120 C.ar  173  TYR173     -0.0009
     74  CE1       30.6540   12.1160   -5.1480 C.ar  173  TYR173      0.0417
     75  CE2       28.9170   11.1350   -3.8250 C.ar  173  TYR173      0.0417
     76  CZ        29.3760   11.6020   -5.0440 C.ar  173  TYR173      0.1957
     77  OH        28.5700   11.5230   -6.1610 O.3   173  TYR173     -0.2866
     78  N         26.6020    5.7630    0.7760 N.3   206  ARG206     -0.1231
     79  CA        27.3120    6.7780    0.0190 C.3   206  ARG206      0.1694
     80  C         26.3470    7.5610   -0.8230 C.2   206  ARG206      0.2592
     81  O         26.6600    8.6520   -1.2880 O.2   206  ARG206     -0.2718
     82  CB        28.3500    6.1470   -0.8910 C.3   206  ARG206      0.0321
     83  CG        28.8680    7.1170   -1.9390 C.3   206  ARG206      0.0489
     84  CD        28.6990    6.5360   -3.3180 C.3   206  ARG206      0.2205
     85  NE        29.6790    7.0770   -4.2460 N.pl3 206  ARG206     -0.0865
     86  CZ        29.3830    7.9200   -5.2250 C.cat 206  ARG206      0.5346
     87  NH1       28.1340    8.3190   -5.4030 N.pl3 206  ARG206      0.1354
     88  NH2       30.3340    8.3600   -6.0270 N.pl3 206  ARG206      0.1354
     89  N         25.1670    6.9900   -1.0210 N.am  207  PHE207     -0.1962
     90  CA        24.1310    7.6140   -1.8330 C.3   207  PHE207      0.1771
     91  C         22.9640    8.2480   -1.0590 C.2   207  PHE207      0.2619
     92  O         21.9890    8.6580   -1.6770 O.2   207  PHE207     -0.2715
     93  CB        23.5420    6.5870   -2.7950 C.3   207  PHE207      0.0574
     94  CG        24.5410    5.9440   -3.6950 C.ar  207  PHE207     -0.0200
     95  CD1       25.0300    4.6870   -3.4110 C.ar  207  PHE207     -0.0042
     96  CD2       24.9640    6.5770   -4.8440 C.ar  207  PHE207     -0.0042
     97  CE1       25.9270    4.0650   -4.2610 C.ar  207  PHE207     -0.0003
     98  CE2       25.8640    5.9580   -5.7070 C.ar  207  PHE207     -0.0003
     99  CZ        26.3450    4.7030   -5.4160 C.ar  207  PHE207     -0.0000
    100  N         23.0220    8.3150    0.2710 N.am  208  ILE208     -0.1963
    101  CA        21.9150    8.9220    1.0180 C.3   208  ILE208      0.1727
    102  C         21.9370   10.4380    0.8170 C.2   208  ILE208      0.2616
    103  O         22.9910   11.0680    0.9310 O.2   208  ILE208     -0.2715
    104  CB        21.9990    8.6370    2.5270 C.3   208  ILE208      0.0290
    105  CG1       22.5460    7.2360    2.7790 C.3   208  ILE208      0.0022
    106  CG2       20.6290    8.7960    3.1380 C.3   208  ILE208      0.0023
    107  CD1       21.4810    6.1800    2.9090 C.3   208  ILE208      0.0001
    108  N         20.7790   11.0260    0.5280 N.am  209  ASN209     -0.1958
    109  CA        20.7130   12.4650    0.2920 C.3   209  ASN209      0.1819
    110  C         20.5020   13.2920    1.5460 C.2   209  ASN209      0.2621
    111  O         19.8700   12.8380    2.4990 O.2   209  ASN209     -0.2715
    112  CB        19.5920   12.7720   -0.6910 C.3   209  ASN209      0.1195
    113  CG        19.9120   12.3140   -2.0850 C.2   209  ASN209      0.2630
    114  OD1       20.8850   12.7680   -2.6940 O.2   209  ASN209     -0.2716
    115  ND2       19.0970   11.4060   -2.6060 N.am  209  ASN209     -0.0877
    116  N         21.0210   14.5150    1.5290 N.am  210  HIS210     -0.1973
    117  CA        20.8820   15.4340    2.6560 C.3   210  HIS210      0.1656
    118  C         19.4550   15.9460    2.7830 C.2   210  HIS210      0.2291
    119  O         18.7320   16.0690    1.8020 O.2   210  HIS210     -0.2864
    120  CB        21.8180   16.6380    2.5060 C.3   210  HIS210      0.0771
    121  CG        21.4860   17.7710    3.4270 C.ar  210  HIS210      0.0820
    122  ND1       22.2220   18.0480    4.5560 N.ar  210  HIS210     -0.2267
    123  CD2       20.4780   18.6710    3.4000 C.ar  210  HIS210      0.1154
    124  CE1       21.6790   19.0740    5.1900 C.ar  210  HIS210      0.1986
    125  NE2       20.6200   19.4690    4.5100 N.ar  210  HIS210     -0.2212
    126  N         24.0250   16.7060    6.4670 N.3   251  TYR251     -0.1241
    127  CA        25.4670   16.5290    6.2840 C.3   251  TYR251      0.1605
    128  C         26.3570   17.1600    7.3340 C.2   251  TYR251      0.2264
    129  O         27.5570   16.8700    7.4010 O.2   251  TYR251     -0.2867
    130  CB        25.8710   17.0150    4.8880 C.3   251  TYR251      0.0534
    131  CG        25.3190   16.1290    3.7980 C.ar  251  TYR251     -0.0201
    132  CD1       25.6220   16.3440    2.4620 C.ar  251  TYR251     -0.0009
    133  CD2       24.4920   15.0640    4.1180 C.ar  251  TYR251     -0.0009
    134  CE1       25.1120   15.5170    1.4760 C.ar  251  TYR251      0.0417
    135  CE2       23.9790   14.2360    3.1540 C.ar  251  TYR251      0.0417
    136  CZ        24.2840   14.4590    1.8350 C.ar  251  TYR251      0.1957
    137  OH        23.7300   13.6160    0.8960 O.3   251  TYR251     -0.2866
    138  N         20.0660   23.3320   -1.7060 N.3   254  CYS254     -0.1221
    139  CA        19.3550   22.2140   -1.0810 C.3   254  CYS254      0.1808
    140  C         17.9840   22.0090   -1.7350 C.2   254  CYS254      0.2601
    141  O         17.2420   22.9650   -1.9470 O.2   254  CYS254     -0.2717
    142  CB        19.1790   22.4690    0.4230 C.3   254  CYS254      0.0970
    143  SG        18.7870   20.9830    1.3970 S.3   254  CYS254     -0.0800
    144  N         17.6500   20.7640   -2.0500 N.am  255  LEU255     -0.1965
    145  CA        16.3770   20.4640   -2.6890 C.3   255  LEU255      0.1728
    146  C         15.4650   19.6420   -1.7890 C.2   255  LEU255      0.2616
    147  O         14.5080   19.0090   -2.2570 O.2   255  LEU255     -0.2715
    148  CB        16.6180   19.7090   -3.9970 C.3   255  LEU255      0.0311
    149  CG        16.5710   20.4620   -5.3340 C.3   255  LEU255      0.0022
    150  CD1       15.7330   19.6470   -6.3170 C.3   255  LEU255      0.0001
    151  CD2       15.9890   21.8640   -5.1550 C.3   255  LEU255      0.0001
    152  N         15.7670   19.6640   -0.4940 N.am  256  CYS256     -0.1968
    153  CA        14.9960   18.9250    0.5000 C.3   256  CYS256      0.1712
    154  C         13.6430   19.5860    0.7350 C.2   256  CYS256      0.2296
    155  O         13.5710   20.8030    0.9540 O.2   256  CYS256     -0.2864
    156  CB        15.7650   18.8830    1.8130 C.3   256  CYS256      0.0983
    157  SG        15.4000   20.3110    2.8750 S.3   256  CYS256     -0.0798
    158  N         23.5160   23.1130    1.6870 N.3   265  LEU265     -0.1231
    159  CA        24.1150   21.9910    2.4090 C.3   265  LEU265      0.1693
    160  C         25.4820   22.4240    2.8990 C.2   265  LEU265      0.2592
    161  O         26.0320   23.4130    2.4220 O.2   265  LEU265     -0.2718
    162  CB        24.2850   20.7700    1.5110 C.3   265  LEU265      0.0284
    163  CG        23.3760   20.6120    0.3020 C.3   265  LEU265      0.0019
    164  CD1       23.8100   19.3880   -0.4700 C.3   265  LEU265      0.0001
    165  CD2       21.9460   20.4830    0.7490 C.3   265  LEU265      0.0001
    166  N         26.0340   21.6710    3.8430 N.am  266  TRP266     -0.1976
    167  CA        27.3510   21.9720    4.4120 C.3   266  TRP266      0.1640
    168  C         27.3940   23.3500    5.0900 C.2   266  TRP266      0.2290
    169  O         28.5060   23.8030    5.4520 O.2   266  TRP266     -0.2864
    170  CB        28.4540   21.9020    3.3370 C.3   266  TRP266      0.0576
    171  CG        28.2250   20.9100    2.2210 C.ar  266  TRP266      0.0006
    172  CD1       27.8530   21.1980    0.9420 C.ar  266  TRP266      0.0946
    173  CD2       28.4050   19.4850    2.2760 C.ar  266  TRP266      0.0152
    174  NE1       27.7930   20.0480    0.1920 N.ar  266  TRP266     -0.2442
    175  CE2       28.1270   18.9820    0.9820 C.ar  266  TRP266      0.0810
    176  CE3       28.7760   18.5870    3.2830 C.ar  266  TRP266      0.0012
    177  CZ2       28.2060   17.6130    0.6730 C.ar  266  TRP266      0.0191
    178  CZ3       28.8550   17.2240    2.9740 C.ar  266  TRP266      0.0001
    179  CH2       28.5730   16.7550    1.6780 C.ar  266  TRP266      0.0015
@<TRIPOS>BOND
     1    27    29   ar
     2    27    25   ar
     3    29    28   ar
     4    25    24   ar
     5    25    23   ar
     6    24    22   ar
     7    28    26   ar
     8    50    49    1
     9    23    26   ar
    10    23    21   ar
    11    22    21   ar
    12    42    43    1
    13    57    56   ar
    14    13    12    1
    15    13    14    1
    16    21    20    1
    17    47    48    1
    18    47    46    1
    19    49    48    1
    20    12     3   am
    21    14    15    2
    22    14    16   am
    23    16    17    1
    24    56    58   ar
    25    56    55    1
    26    46    43    1
    27    43    44    1
    28     1     2    1
    29    20    17    1
    30     3     2    1
    31     3     4    2
    32    17    18    1
    33    51    44   am
    34    51    52    1
    35    55    52    1
    36   150   149    1
    37     2     5    1
    38    77    76    1
    39    44    45    2
    40    88    86    1
    41    52    53    1
    42    98    99   ar
    43    98    96   ar
    44    99    97   ar
    45    87    86    1
    46   149   151    1
    47   149   148    1
    48    18    19    2
    49    86    85    2
    50    74    76   ar
    51    74    72   ar
    52    76    75   ar
    53    54    53    2
    54    96    94   ar
    55     5     6    1
    56    53    59   am
    57    97    95   ar
    58    85    84    1
    59     6     7    1
    60    72    71   ar
    61   148   145    1
    62    75    73   ar
    63    94    95   ar
    64    94    93    1
    65     8     7    1
    66     8     9    2
    67    59    60    1
    68    84    83    1
    69    11     9    1
    70    93    90    1
    71    71    73   ar
    72    71    70    1
    73   114   113    2
    74   145   144    1
    75   145   146    1
    76   115   113   am
    77     9    10    1
    78    60    61    1
    79    60    63    1
    80   147   146    2
    81   113   112    1
    82   144   140   am
    83   141   140    2
    84    83    82    1
    85    90    91    1
    86    90    89    1
    87   146   152   am
    88   140   139    1
    89   138   139    1
    90    92    91    2
    91    65    63    1
    92    70    67    1
    93    61    62    2
    94    61    66   am
    95    81    80    2
    96    66    67    1
    97    63    64    1
    98   139   142    1
    99    91   100   am
   100    89    80   am
   101    82    79    1
   102    80    79    1
   103   112   109    1
   104    67    68    1
   105   152   153    1
   106   164   163    1
   107    79    78    1
   108   174   172   ar
   109   174   175   ar
   110   100   101    1
   111   109   108    1
   112   109   110    1
   113   163   165    1
   114   163   162    1
   115   142   143    1
   116   153   154    1
   117   153   156    1
   118   108   102   am
   119    68    69    2
   120   177   175   ar
   121   177   179   ar
   122   154   155    2
   123   102   103    2
   124   102   101    1
   125   137   136    1
   126   172   171   ar
   127   175   173   ar
   128   101   104    1
   129   134   136   ar
   130   134   132   ar
   131   162   159    1
   132   116   110   am
   133   116   117    1
   134   110   111    2
   135    41    40    1
   136   179   178   ar
   137   158   159    1
   138   119   118    2
   139   156   157    1
   140   136   135   ar
   141   171   173   ar
   142   171   170    1
   143   173   176   ar
   144   159   160    1
   145   161   160    2
   146   132   131   ar
   147   120   117    1
   148   120   121    1
   149   104   105    1
   150   104   106    1
   151   117   118    1
   152   105   107    1
   153    40    38   ar
   154    40    39   ar
   155   160   166   am
   156   178   176   ar
   157   135   133   ar
   158    38    36   ar
   159   170   167    1
   160   123   121   ar
   161   123   125   ar
   162   121   122   ar
   163    39    37   ar
   164   131   133   ar
   165   131   130    1
   166   166   167    1
   167    36    35   ar
   168   167   168    1
   169   125   124   ar
   170   122   124   ar
   171    37    35   ar
   172   130   127    1
   173   168   169    2
   174    35    34    1
   175    32    31    1
   176    32    33    2
   177    31    34    1
   178    31    30    1
   179   127   126    1
   180   127   128    1
   181   128   129    2
