@<TRIPOS>MOLECULE
tmp/1pekA00.pdb
 146 137 0 0 0
SMALL
GASTEIGER

@<TRIPOS>ATOM
      1  N        -18.4120   26.8080    8.3730 N.3    40  THR40      -0.1218
      2  CA       -17.4200   27.5420    9.1830 C.3    40  THR40       0.1862
      3  C        -16.5430   28.5060    8.4020 C.2    40  THR40       0.2287
      4  O        -15.7910   29.2240    9.0640 O.2    40  THR40      -0.2866
      5  CB       -16.5040   26.6130   10.0400 C.3    40  THR40       0.1770
      6  OG1      -15.5460   25.8750    9.1930 O.3    40  THR40      -0.2211
      7  CG2      -17.2980   25.5090   10.7990 C.3    40  THR40       0.0375
      8  N        -13.4350   22.6070    9.5940 N.3    69  HIS69      -0.1241
      9  CA       -14.4670   21.7170    9.1120 C.3    69  HIS69       0.1621
     10  C        -14.8280   22.1990    7.7650 C.2    69  HIS69       0.2264
     11  O        -15.0110   21.4400    6.8520 O.2    69  HIS69      -0.2867
     12  CB       -15.7890   21.7550    9.8480 C.3    69  HIS69       0.0745
     13  CG       -16.8920   20.8310    9.5460 C.ar   69  HIS69       0.0817
     14  ND1      -18.1360   21.1770    9.0800 N.ar   69  HIS69      -0.2268
     15  CD2      -16.9090   19.4930    9.8310 C.ar   69  HIS69       0.1154
     16  CE1      -18.8710   20.0900    9.0270 C.ar   69  HIS69       0.1986
     17  NE2      -18.2060   19.1130    9.5810 N.ar   69  HIS69      -0.2212
     18  N        -21.3610   29.1310   10.5400 N.3    96  LEU96      -0.1245
     19  CA       -20.8980   28.4830   11.7180 C.3    96  LEU96       0.1561
     20  C        -19.6900   29.2220   12.2650 C.2    96  LEU96       0.2260
     21  O        -18.8260   29.7920   11.6370 O.2    96  LEU96      -0.2867
     22  CB       -20.6870   26.9810   11.5700 C.3    96  LEU96       0.0270
     23  CG       -21.7480   26.0220   11.0840 C.3    96  LEU96       0.0019
     24  CD1      -21.2320   24.5850   10.8800 C.3    96  LEU96       0.0001
     25  CD2      -22.9450   26.0180   11.9940 C.3    96  LEU96       0.0001
     26  N        -17.5890   25.2140   15.3720 N.3   100  GLY100     -0.1210
     27  CA       -18.4890   24.5260   14.4890 C.3   100  GLY100      0.1956
     28  C        -19.9020   24.7440   14.8800 C.2   100  GLY100      0.2613
     29  O        -20.7660   23.9800   14.4790 O.2   100  GLY100     -0.2717
     30  N        -20.2550   25.6060   15.7670 N.am  101  SER101     -0.1938
     31  CA       -21.6930   25.7020   16.0790 C.3   101  SER101      0.2055
     32  C        -22.3210   26.9720   15.5630 C.2   101  SER101      0.2640
     33  O        -21.6820   27.8660   14.9880 O.2   101  SER101     -0.2714
     34  CB       -21.8540   25.6970   17.5400 C.3   101  SER101      0.2130
     35  OG       -20.8710   26.5230   18.1090 O.3   101  SER101     -0.2179
     36  N        -23.6060   27.0300   15.8120 N.am  102  GLY102     -0.2011
     37  CA       -24.3550   28.2410   15.3990 C.3   102  GLY102      0.1506
     38  C        -25.8410   28.0720   15.6700 C.3   102  GLY102      0.2054
     39  O        -26.1230   26.9500   16.1190 O.3   102  GLY102     -0.2184
     40  N        -30.0150   28.2820   14.5950 N.3   104  TYR104     -0.1241
     41  CA       -30.8920   27.9510   13.5250 C.3   104  TYR104      0.1605
     42  C        -31.2540   29.1620   12.7160 C.2   104  TYR104      0.2264
     43  O        -31.1870   29.0610   11.5320 O.2   104  TYR104     -0.2867
     44  CB       -32.1000   27.2200   14.1310 C.3   104  TYR104      0.0534
     45  CG       -31.6960   25.7560   14.1170 C.ar  104  TYR104     -0.0201
     46  CD1      -30.5200   25.2470   13.5160 C.ar  104  TYR104     -0.0009
     47  CD2      -32.6500   24.9030   14.6900 C.ar  104  TYR104     -0.0009
     48  CE1      -30.2980   23.8540   13.4810 C.ar  104  TYR104      0.0417
     49  CE2      -32.4250   23.5110   14.6690 C.ar  104  TYR104      0.0417
     50  CZ       -31.2900   23.0410   14.0420 C.ar  104  TYR104      0.1957
     51  OH       -31.3480   21.6840   14.0840 O.3   104  TYR104     -0.2866
     52  N        -28.2740   29.8900   10.5140 N.3   107  ILE107     -0.1245
     53  CA       -28.1900   28.8770    9.5360 C.3   107  ILE107      0.1561
     54  C        -29.3640   29.1680    8.5880 C.2   107  ILE107      0.2260
     55  O        -29.0640   29.3200    7.3970 O.2   107  ILE107     -0.2867
     56  CB       -27.8110   27.4810   10.1050 C.3   107  ILE107      0.0252
     57  CG1      -29.1660   26.7570   10.1110 C.3   107  ILE107      0.0019
     58  CG2      -27.1040   27.0750   11.3770 C.3   107  ILE107      0.0019
     59  CD1      -29.2380   26.1270    8.7580 C.3   107  ILE107      0.0001
     60  N        -23.3270   20.3650    5.6890 N.3   132  SER132     -0.1202
     61  CA       -22.6700   19.3890    6.5590 C.3   132  SER132      0.2020
     62  C        -22.9390   19.8860    7.9250 C.2   132  SER132      0.2619
     63  O        -21.9400   20.2370    8.5490 O.2   132  SER132     -0.2717
     64  CB       -21.1690   19.4270    6.2770 C.3   132  SER132      0.2103
     65  OG       -21.1110   18.7410    5.0690 O.3   132  SER132     -0.2182
     66  N        -24.2000   19.9550    8.2910 N.am  133  LEU133     -0.1965
     67  CA       -24.5750   20.4310    9.5790 C.3   133  LEU133      0.1728
     68  C        -26.0070   19.9920    9.8340 C.2   133  LEU133      0.2617
     69  O        -26.7060   19.4350    8.9760 O.2   133  LEU133     -0.2715
     70  CB       -24.3790   21.9250    9.5820 C.3   133  LEU133      0.0311
     71  CG       -25.1090   23.0970    8.9960 C.3   133  LEU133      0.0022
     72  CD1      -24.3400   23.7770    7.9410 C.3   133  LEU133      0.0001
     73  CD2      -26.5710   22.8860    8.6920 C.3   133  LEU133      0.0001
     74  N        -26.3960   20.1780   11.0440 N.am  134  GLY134     -0.1940
     75  CA       -27.7740   19.7720   11.3640 C.3   134  GLY134      0.2014
     76  C        -27.9450   19.8500   12.8120 C.2   134  GLY134      0.2639
     77  O        -27.0370   20.1690   13.5260 O.2   134  GLY134     -0.2714
     78  N        -29.1170   19.4500   13.2140 N.am  135  GLY135     -0.1939
     79  CA       -29.4340   19.4760   14.5960 C.3   135  GLY135      0.2014
     80  C        -30.8050   18.7940   14.5680 C.2   135  GLY135      0.2639
     81  O        -31.2370   18.3140   13.5780 O.2   135  GLY135     -0.2714
     82  N        -31.3880   18.8600   15.7110 N.am  136  GLY136     -0.1954
     83  CA       -32.6950   18.3090   16.0600 C.3   136  GLY136      0.1869
     84  C        -33.6720   18.9710   15.1170 C.2   136  GLY136      0.2309
     85  O        -33.5110   20.0790   14.6220 O.2   136  GLY136     -0.2863
     86  N        -26.2880   16.7500    5.4240 N.3   158  ALA158     -0.1245
     87  CA       -25.8420   15.5810    6.1730 C.3   158  ALA158      0.1562
     88  C        -26.9870   14.9030    6.8640 C.2   158  ALA158      0.2260
     89  O        -27.8900   15.6150    7.2890 O.2   158  ALA158     -0.2867
     90  CB       -24.7050   15.9770    7.0610 C.3   158  ALA158      0.0290
     91  N        -26.6390   12.9910    9.4310 N.3   160  GLY160     -0.1210
     92  CA       -26.2390   13.1070   10.7810 C.3   160  GLY160      0.1956
     93  C        -25.4700   11.8850   11.2690 C.2   160  GLY160      0.2612
     94  O        -25.5450   10.8030   10.6870 O.2   160  GLY160     -0.2717
     95  N        -24.7820   12.0570   12.3410 N.am  161  ASN161     -0.1960
     96  CA       -23.9390   10.9910   12.8830 C.3   161  ASN161      0.1819
     97  C        -24.3320   10.3410   14.1250 C.2   161  ASN161      0.2621
     98  O        -23.4230    9.9800   14.8480 O.2   161  ASN161     -0.2715
     99  CB       -22.5670   11.6810   12.9800 C.3   161  ASN161      0.1195
    100  CG       -22.1000   12.4370   11.7940 C.2   161  ASN161      0.2630
    101  OD1      -22.1040   11.8730   10.7140 O.2   161  ASN161     -0.2716
    102  ND2      -21.6980   13.7190   11.8370 N.am  161  ASN161     -0.0877
    103  N        -25.5760   10.1590   14.4270 N.am  162  ASN162     -0.1972
    104  CA       -26.0900    9.5350   15.6030 C.3   162  ASN162      0.1688
    105  C        -26.4330    8.0480   15.4000 C.2   162  ASN162      0.2292
    106  O        -26.9680    7.3680   16.2850 O.2   162  ASN162     -0.2864
    107  CB       -27.1620   10.5150   15.9760 C.3   162  ASN162      0.1181
    108  CG       -27.1680   12.0070   15.5550 C.2   162  ASN162      0.2629
    109  OD1      -26.7010   12.7730   16.4280 O.2   162  ASN162     -0.2716
    110  ND2      -27.6720   12.6090   14.4670 N.am  162  ASN162     -0.0877
    111  N        -33.9050   15.4580   13.0150 N.3   169  TYR169     -0.1227
    112  CA       -32.6710   15.6210   12.4340 C.3   169  TYR169      0.1736
    113  C        -32.9530   16.7380   11.4780 C.2   169  TYR169      0.2592
    114  O        -33.7690   16.2430   10.6910 O.2   169  TYR169     -0.2718
    115  CB       -31.2980   15.0060   12.2290 C.3   169  TYR169      0.0548
    116  CG       -30.9610   14.2110   13.4350 C.ar  169  TYR169     -0.0200
    117  CD1      -30.5120   14.7400   14.5720 C.ar  169  TYR169     -0.0009
    118  CD2      -31.4440   12.8640   13.4520 C.ar  169  TYR169     -0.0009
    119  CE1      -30.2950   13.8480   15.5860 C.ar  169  TYR169      0.0417
    120  CE2      -31.3150   11.9780   14.4740 C.ar  169  TYR169      0.0417
    121  CZ       -30.6640   12.5370   15.5410 C.ar  169  TYR169      0.1957
    122  OH       -30.4590   11.8090   16.6260 O.3   169  TYR169     -0.2866
    123  N        -32.7600   17.9940   11.4180 N.am  170  SER170     -0.2005
    124  CA       -32.8660   19.1130   10.6240 C.3   170  SER170      0.1610
    125  C        -31.6120   19.9130   10.1260 C.3   170  SER170      0.2063
    126  O        -30.7290   19.8660   10.8970 O.3   170  SER170     -0.2184
    127  CB       -34.0120   20.0380   10.9620 C.3   170  SER170      0.2063
    128  OG       -35.2800   19.5370   10.9110 O.3   170  SER170     -0.2184
    129  N        -31.8380   17.4980    7.6490 N.3   172  ALA172     -0.1245
    130  CA       -31.7970   16.0970    7.2350 C.3   172  ALA172      0.1562
    131  C        -33.1430   15.4800    6.9370 C.2   172  ALA172      0.2260
    132  O        -33.3500   14.7350    5.9840 O.2   172  ALA172     -0.2867
    133  CB       -30.9360   15.3670    8.2590 C.3   172  ALA172      0.0290
    134  N        -20.8420   12.2080    8.2020 N.3   223  THR223     -0.1203
    135  CA       -21.8440   12.3610    7.1880 C.3   223  THR223      0.1994
    136  C        -21.5300   13.7740    6.6670 C.2   223  THR223      0.2618
    137  O        -21.9210   14.0920    5.5700 O.2   223  THR223     -0.2717
    138  CB       -23.3370   12.0210    7.5630 C.3   223  THR223      0.1784
    139  OG1      -23.6800   12.9400    8.6140 O.3   223  THR223     -0.2211
    140  CG2      -23.5700   10.6270    8.1120 C.3   223  THR223      0.0376
    141  N        -20.7570   14.5720    7.3300 N.am  224  SER224     -0.1951
    142  CA       -20.3430   15.8970    6.9350 C.3   224  SER224      0.1924
    143  C        -19.3760   15.7210    5.7980 C.2   224  SER224      0.2314
    144  O        -19.2150   16.6210    4.9370 O.2   224  SER224     -0.2863
    145  CB       -19.6370   16.6010    8.0070 C.3   224  SER224      0.2116
    146  OG       -20.3330   17.2610    9.0120 O.3   224  SER224     -0.2180
@<TRIPOS>BOND
     1   144   143    2
     2    65    64    1
     3    86    87    1
     4   137   136    2
     5    60    61    1
     6   143   142    1
     7   132   131    2
     8    87    88    1
     9    87    90    1
    10    64    61    1
    11    61    62    1
    12   136   135    1
    13   136   141   am
    14    11    10    2
    15    88    89    2
    16   142   141    1
    17   142   145    1
    18   131   130    1
    19   135   138    1
    20   135   134    1
    21   130   129    1
    22   130   133    1
    23    55    54    2
    24   138   140    1
    25   138   139    1
    26    10     9    1
    27    62    66   am
    28    62    63    2
    29    72    71    1
    30   145   146    1
    31    66    67    1
    32     1     2    1
    33     3     4    2
    34     3     2    1
    35    54    53    1
    36    73    71    1
    37    59    57    1
    38    69    68    2
    39    71    70    1
    40    16    14   ar
    41    16    17   ar
    42    14    13   ar
    43     9     8    1
    44     9    12    1
    45     2     5    1
    46     6     5    1
    47    91    92    1
    48    53    56    1
    49    53    52    1
    50    13    15   ar
    51    13    12    1
    52    67    70    1
    53    67    68    1
    54    17    15   ar
    55    68    74   am
    56     5     7    1
    57    56    57    1
    58    56    58    1
    59   125   124    1
    60   125   126    1
    61    18    19    1
    62   124   127    1
    63   124   123    1
    64    94    93    2
    65   114   113    2
    66   101   100    2
    67    92    93    1
    68    24    23    1
    69   128   127    1
    70    74    75    1
    71    23    22    1
    72    23    25    1
    73    93    95   am
    74    75    76    1
    75   123   113   am
    76   113   112    1
    77    43    42    2
    78    22    19    1
    79    21    20    2
    80    19    20    1
    81   100   102   am
    82   100    99    1
    83   115   112    1
    84   115   116    1
    85    95    96    1
    86   112   111    1
    87    42    41    1
    88    76    78   am
    89    76    77    2
    90    96    99    1
    91    96    97    1
    92    78    79    1
    93   116   118   ar
    94   116   117   ar
    95   118   120   ar
    96    48    46   ar
    97    48    50   ar
    98    46    45   ar
    99    41    44    1
   100    41    40    1
   101    81    80    2
   102    50    51    1
   103    50    49   ar
   104    45    44    1
   105    45    47   ar
   106    97   103   am
   107    97    98    2
   108   103   104    1
   109   110   108   am
   110   120   121   ar
   111    29    28    2
   112    27    28    1
   113    27    26    1
   114    80    79    1
   115    80    82   am
   116   117   119   ar
   117    85    84    2
   118    49    47   ar
   119    28    30   am
   120    33    32    2
   121    84    83    1
   122    37    38    1
   123    37    36    1
   124   105   104    1
   125   105   106    2
   126   121   119   ar
   127   121   122    1
   128   108   107    1
   129   108   109    2
   130    32    36   am
   131    32    31    1
   132   104   107    1
   133    38    39    1
   134    82    83    1
   135    30    31    1
   136    31    34    1
   137    34    35    1
