@<TRIPOS>MOLECULE
tmp/1peqA00.pdb
 132 126 0 0 0
SMALL
GASTEIGER

@<TRIPOS>ATOM
      1  N         -5.4570   15.4280  141.6300 N.3   178  ASP178     -0.1225
      2  CA        -5.1380   16.3150  142.7500 C.3   178  ASP178      0.1805
      3  C         -5.2620   15.6680  144.1180 C.2   178  ASP178      0.2598
      4  O         -6.0410   16.1270  144.9450 O.2   178  ASP178     -0.2718
      5  CB        -6.0250   17.5480  142.6610 C.3   178  ASP178      0.1424
      6  CG        -5.6450   18.6160  143.6500 C.2   178  ASP178      0.3668
      7  OD1       -6.6040   19.2140  144.2460 O.co2 178  ASP178     -0.2456
      8  OD2       -4.4350   18.8730  143.9030 O.co2 178  ASP178     -0.2456
      9  N         -4.4850   14.6080  144.3600 N.am  179  ASN179     -0.1960
     10  CA        -4.5020   13.9130  145.6550 C.3   179  ASN179      0.1819
     11  C         -3.2630   13.0750  145.8530 C.2   179  ASN179      0.2621
     12  O         -2.6490   12.6470  144.8920 O.2   179  ASN179     -0.2715
     13  CB        -5.6840   13.0050  145.7580 C.3   179  ASN179      0.1195
     14  CG        -5.6280   11.8870  144.7450 C.2   179  ASN179      0.2630
     15  OD1       -4.9060   10.8760  144.9430 O.2   179  ASN179     -0.2716
     16  ND2       -6.3420   12.0710  143.6180 N.am  179  ASN179     -0.0877
     17  N         -2.8950   12.8200  147.0990 N.am  180  MET180     -0.1963
     18  CA        -1.5820   12.2300  147.3690 C.3   180  MET180      0.1736
     19  C         -1.3780   10.8350  146.7720 C.2   180  MET180      0.2616
     20  O         -0.2650   10.4650  146.3970 O.2   180  MET180     -0.2715
     21  CB        -1.2980   12.2410  148.8680 C.3   180  MET180      0.0427
     22  CG         0.1700   12.3000  149.2320 C.3   180  MET180      0.0599
     23  SD         0.9730   13.8970  148.8190 S.3   180  MET180     -0.1393
     24  CE         2.0890   14.0190  150.0810 C.3   180  MET180      0.0692
     25  N         -2.4500   10.0690  146.6590 N.am  181  GLU181     -0.1977
     26  CA        -2.3490    8.7500  146.0640 C.3   181  GLU181      0.1602
     27  C         -1.8990    8.9020  144.6150 C.2   181  GLU181      0.2287
     28  O         -1.0020    8.2260  144.1230 O.2   181  GLU181     -0.2864
     29  CB        -3.7090    8.0380  146.1250 C.3   181  GLU181      0.0415
     30  CG        -4.0970    7.6150  147.5240 C.3   181  GLU181      0.1163
     31  CD        -4.4250    8.7790  148.4600 C.2   181  GLU181      0.3649
     32  OE1       -5.1610    9.7530  148.0680 O.co2 181  GLU181     -0.2457
     33  OE2       -3.9570    8.6880  149.6280 O.co2 181  GLU181     -0.2457
     34  N         -0.2950   11.1880  143.2720 N.3   183  ILE183     -0.1245
     35  CA         1.0630   11.6690  143.1760 C.3   183  ILE183      0.1561
     36  C          2.0320   10.5360  143.4510 C.2   183  ILE183      0.2260
     37  O          3.0340   10.3910  142.7640 O.2   183  ILE183     -0.2867
     38  CB         1.2580   12.8090  144.1270 C.3   183  ILE183      0.0252
     39  CG1        0.4110   13.9760  143.6600 C.3   183  ILE183      0.0019
     40  CG2        2.6810   13.2190  144.1630 C.3   183  ILE183      0.0019
     41  CD1        0.4950   15.1560  144.5590 C.3   183  ILE183      0.0001
     42  N         -3.0530   19.6510  139.5220 N.3   207  LEU207     -0.1231
     43  CA        -2.5660   19.8440  140.8910 C.3   207  LEU207      0.1693
     44  C         -2.9740   21.2130  141.4020 C.2   207  LEU207      0.2591
     45  O         -2.9460   22.1790  140.6590 O.2   207  LEU207     -0.2718
     46  CB        -1.0610   19.6850  140.9630 C.3   207  LEU207      0.0284
     47  CG        -0.5780   18.3110  140.5410 C.3   207  LEU207      0.0019
     48  CD1        0.9220   18.2060  140.6540 C.3   207  LEU207      0.0001
     49  CD2       -1.1960   17.2350  141.3750 C.3   207  LEU207      0.0001
     50  N         -3.3520   21.3000  142.6700 N.am  208  ARG208     -0.1980
     51  CA        -3.7180   22.5940  143.2510 C.3   208  ARG208      0.1597
     52  C         -2.4720   23.4070  143.4870 C.2   208  ARG208      0.2287
     53  O         -1.4830   22.8500  143.9080 O.2   208  ARG208     -0.2864
     54  CB        -4.5290   22.4500  144.5470 C.3   208  ARG208      0.0334
     55  CG        -3.8090   21.8600  145.7510 C.3   208  ARG208      0.0492
     56  CD        -4.7430   21.5450  146.9300 C.3   208  ARG208      0.2205
     57  NE        -5.7230   20.5410  146.6180 N.pl3 208  ARG208     -0.0865
     58  CZ        -6.4780   19.9450  147.5180 C.cat 208  ARG208      0.5346
     59  NH1       -6.3820   20.2440  148.8190 N.pl3 208  ARG208      0.1354
     60  NH2       -7.3360   19.0400  147.1090 N.pl3 208  ARG208      0.1354
     61  N         -5.6960   22.6280  152.1950 N.3   214  ILE214     -0.1231
     62  CA        -5.6560   21.2040  152.3510 C.3   214  ILE214      0.1692
     63  C         -6.4590   20.9110  153.6060 C.2   214  ILE214      0.2592
     64  O         -6.1370   21.4110  154.6830 O.2   214  ILE214     -0.2718
     65  CB        -4.2390   20.7400  152.5440 C.3   214  ILE214      0.0266
     66  CG1       -3.4430   20.9250  151.2630 C.3   214  ILE214      0.0019
     67  CG2       -4.2380   19.3090  152.9400 C.3   214  ILE214      0.0020
     68  CD1       -1.9400   20.8530  151.4530 C.3   214  ILE214      0.0001
     69  N         -7.4960   20.0990  153.4810 N.am  215  LYS215     -0.1966
     70  CA        -8.3340   19.7910  154.6160 C.3   215  LYS215      0.1728
     71  C         -8.8700   21.1210  155.1900 C.2   215  LYS215      0.2616
     72  O         -8.9450   21.3420  156.4060 O.2   215  LYS215     -0.2715
     73  CB        -7.5440   18.9850  155.6570 C.3   215  LYS215      0.0311
     74  CG        -7.5340   17.4770  155.4340 C.3   215  LYS215      0.0038
     75  CD        -6.7670   16.7310  156.5480 C.3   215  LYS215      0.0206
     76  CE        -6.5000   15.2280  156.2130 C.3   215  LYS215      0.1093
     77  NZ        -7.7140   14.3460  156.1860 N.3   215  LYS215     -0.1314
     78  N         -9.2230   22.0270  154.2920 N.am  216  ARG216     -0.1977
     79  CA        -9.8040   23.3050  154.6930 C.3   216  ARG216      0.1597
     80  C         -8.8620   24.3500  155.3440 C.2   216  ARG216      0.2287
     81  O         -9.2080   25.5450  155.3650 O.2   216  ARG216     -0.2864
     82  CB       -11.0010   23.0390  155.6070 C.3   216  ARG216      0.0334
     83  CG       -12.2030   22.4420  154.8550 C.3   216  ARG216      0.0492
     84  CD       -12.7680   23.3770  153.7700 C.3   216  ARG216      0.2205
     85  NE       -14.1860   23.1120  153.4840 N.pl3 216  ARG216     -0.0865
     86  CZ       -14.9670   23.9030  152.7370 C.cat 216  ARG216      0.5346
     87  NH1      -14.4540   25.0140  152.1800 N.pl3 216  ARG216      0.1354
     88  NH2      -16.2510   23.5850  152.5310 N.pl3 216  ARG216      0.1354
     89  N         -1.5500   26.0940  152.4020 N.3   220  GLN220     -0.1231
     90  CA        -0.9300   24.8660  152.8450 C.3   220  GLN220      0.1698
     91  C         -0.2290   24.0970  151.7240 C.2   220  GLN220      0.2593
     92  O          0.8230   23.5700  151.9420 O.2   220  GLN220     -0.2718
     93  CB        -2.0150   24.0280  153.5370 C.3   220  GLN220      0.0381
     94  CG        -1.5710   23.3010  154.8260 C.3   220  GLN220      0.0905
     95  CD        -0.9840   24.2480  155.8860 C.2   220  GLN220      0.2608
     96  OE1       -1.5210   25.3370  156.1020 O.2   220  GLN220     -0.2717
     97  NE2        0.1400   23.8470  156.5130 N.am  220  GLN220     -0.0878
     98  N         -0.8210   24.0320  150.5310 N.am  221  SER221     -0.1938
     99  CA        -0.2670   23.2640  149.4010 C.3   221  SER221      0.2055
    100  C          1.0640   23.7720  148.9330 C.2   221  SER221      0.2644
    101  O          1.3180   24.9550  149.0690 O.2   221  SER221     -0.2714
    102  CB        -1.1910   23.3630  148.2030 C.3   221  SER221      0.2130
    103  OG        -0.4120   23.2610  147.0150 O.3   221  SER221     -0.2179
    104  N          1.8830   22.9170  148.3030 N.am  222  SER222     -0.1935
    105  CA         3.1900   23.4070  147.7830 C.3   222  SER222      0.2055
    106  C          3.2640   23.6180  146.2770 C.2   222  SER222      0.2643
    107  O          4.2640   24.0690  145.7520 O.2   222  SER222     -0.2714
    108  CB         4.3240   22.5260  148.2330 C.3   222  SER222      0.2130
    109  OG         4.5050   22.7280  149.6200 O.3   222  SER222     -0.2179
    110  N          2.2020   23.2520  145.5770 N.am  223  GLY223     -0.1954
    111  CA         2.1860   23.4050  144.1360 C.3   223  GLY223      0.1869
    112  C          2.9520   22.3040  143.3990 C.2   223  GLY223      0.2309
    113  O          3.3280   21.2810  143.9750 O.2   223  GLY223     -0.2863
    114  N          6.6430   18.4860  143.1700 N.3   227  VAL227     -0.1245
    115  CA         6.3170   17.2130  142.5300 C.3   227  VAL227      0.1561
    116  C          7.2620   17.0140  141.3260 C.2   227  VAL227      0.2260
    117  O          7.7780   15.9200  141.0720 O.2   227  VAL227     -0.2867
    118  CB         4.8420   17.1560  142.0850 C.3   227  VAL227      0.0252
    119  CG1        4.5300   15.8490  141.3470 C.3   227  VAL227      0.0019
    120  CG2        3.9060   17.2890  143.2840 C.3   227  VAL227      0.0019
    121  N         -8.0820   23.9830  142.6480 N.3   292  TYR292     -0.1241
    122  CA        -8.8680   23.6350  143.8480 C.3   292  TYR292      0.1605
    123  C        -10.2970   24.1850  143.7700 C.2   292  TYR292      0.2264
    124  O        -11.2390   23.4960  144.0840 O.2   292  TYR292     -0.2867
    125  CB        -8.2290   24.2130  145.1120 C.3   292  TYR292      0.0534
    126  CG        -8.9510   23.9500  146.4250 C.ar  292  TYR292     -0.0201
    127  CD1       -8.8290   22.7330  147.0760 C.ar  292  TYR292     -0.0009
    128  CD2       -9.7120   24.9470  147.0290 C.ar  292  TYR292     -0.0009
    129  CE1       -9.4630   22.5030  148.2900 C.ar  292  TYR292      0.0417
    130  CE2      -10.3250   24.7630  148.2480 C.ar  292  TYR292      0.0417
    131  CZ       -10.2120   23.5290  148.8810 C.ar  292  TYR292      0.1957
    132  OH       -10.8360   23.2930  150.0830 O.3   292  TYR292     -0.2866
@<TRIPOS>BOND
     1    42    43    1
     2    47    48    1
     3    47    46    1
     4    47    49    1
     5    45    44    2
     6    43    46    1
     7    43    44    1
     8   117   116    2
     9   116   115    1
    10   119   118    1
    11    44    50   am
    12     1     2    1
    13   118   115    1
    14   118   120    1
    15   115   114    1
    16   121   122    1
    17     5     2    1
    18     5     6    1
    19    50    51    1
    20     2     3    1
    21    37    36    2
    22    35    34    1
    23    35    36    1
    24    35    38    1
    25    51    52    1
    26    51    54    1
    27   112   113    2
    28   112   111    1
    29    52    53    2
    30    16    14   am
    31     6     8   ar
    32     6     7   ar
    33    39    38    1
    34    39    41    1
    35   123   122    1
    36   123   124    2
    37   122   125    1
    38     3     9   am
    39     3     4    2
    40    28    27    2
    41    38    40    1
    42   111   110    1
    43     9    10    1
    44    54    55    1
    45    27    26    1
    46    14    15    2
    47    14    13    1
    48    12    11    2
    49   125   126    1
    50   110   106   am
    51    10    13    1
    52    10    11    1
    53    55    56    1
    54   107   106    2
    55    11    17   am
    56    26    29    1
    57    26    25    1
    58    29    30    1
    59   106   105    1
    60    20    19    2
    61   126   128   ar
    62   126   127   ar
    63    57    56    1
    64    57    58    2
    65    25    19   am
    66    19    18    1
    67   103   102    1
    68   128   130   ar
    69   127   129   ar
    70    17    18    1
    71    60    58    1
    72    18    21    1
    73    58    59    1
    74    30    31    1
    75   105   108    1
    76   105   104    1
    77    32    31   ar
    78   102    99    1
    79   108   109    1
    80   130   131   ar
    81   129   131   ar
    82   104   100   am
    83    31    33   ar
    84    23    22    1
    85    23    24    1
    86    21    22    1
    87   131   132    1
    88   100   101    2
    89   100    99    1
    90    99    98    1
    91    98    91   am
    92    66    68    1
    93    66    65    1
    94    91    92    2
    95    91    90    1
    96    87    86    1
    97    61    62    1
    98    62    65    1
    99    62    63    1
   100    89    90    1
   101    88    86    1
   102    65    67    1
   103    86    85    2
   104    90    93    1
   105    69    63   am
   106    69    70    1
   107    85    84    1
   108    93    94    1
   109    63    64    2
   110    84    83    1
   111    78    79    1
   112    78    71   am
   113    70    71    1
   114    70    73    1
   115    79    80    1
   116    79    82    1
   117    94    95    1
   118    83    82    1
   119    71    72    2
   120    80    81    2
   121    74    73    1
   122    74    75    1
   123    95    96    2
   124    95    97   am
   125    77    76    1
   126    76    75    1
