@<TRIPOS>MOLECULE
tmp/1peuA00.pdb
 121 116 0 0 0
SMALL
GASTEIGER

@<TRIPOS>ATOM
      1  N         33.8870   44.3680   69.8180 N.3   178  ASP178     -0.1225
      2  CA        33.0060   44.7720   70.9250 C.3   178  ASP178      0.1805
      3  C         33.6650   44.6870   72.3010 C.2   178  ASP178      0.2598
      4  O         33.2560   43.8740   73.1140 O.2   178  ASP178     -0.2718
      5  CB        31.7380   43.8980   70.9170 C.3   178  ASP178      0.1424
      6  CG        30.5730   44.5110   71.7120 C.2   178  ASP178      0.3668
      7  OD1       29.8850   43.7380   72.4200 O.co2 178  ASP178     -0.2456
      8  OD2       30.2430   45.7250   71.6820 O.co2 178  ASP178     -0.2456
      9  N         34.6680   45.5240   72.5660 N.am  179  ASN179     -0.1960
     10  CA        35.3020   45.5500   73.8890 C.3   179  ASN179      0.1819
     11  C         36.2730   46.7220   74.0710 C.2   179  ASN179      0.2621
     12  O         36.8930   47.1720   73.1210 O.2   179  ASN179     -0.2715
     13  CB        36.0000   44.2610   74.1320 C.3   179  ASN179      0.1195
     14  CG        37.0000   44.0030   73.0970 C.2   179  ASN179      0.2630
     15  OD1       38.1280   44.4830   73.1900 O.2   179  ASN179     -0.2716
     16  ND2       36.5980   43.3000   72.0560 N.am  179  ASN179     -0.0877
     17  N         36.4270   47.1910   75.3040 N.am  180  MET180     -0.1963
     18  CA        37.1090   48.4730   75.5640 C.3   180  MET180      0.1736
     19  C         38.4180   48.7060   74.8600 C.2   180  MET180      0.2616
     20  O         38.7020   49.8000   74.3770 O.2   180  MET180     -0.2715
     21  CB        37.3040   48.6710   77.0580 C.3   180  MET180      0.0427
     22  CG        37.3470   50.1030   77.4680 C.3   180  MET180      0.0599
     23  SD        36.0920   51.1230   76.6820 S.3   180  MET180     -0.1393
     24  CE        34.5640   50.6130   77.5380 C.3   180  MET180      0.0692
     25  N         39.2250   47.6610   74.8460 N.am  181  GLU181     -0.1977
     26  CA        40.5190   47.6570   74.1960 C.3   181  GLU181      0.1602
     27  C         40.3760   47.9990   72.7340 C.2   181  GLU181      0.2287
     28  O         40.8820   49.0300   72.2550 O.2   181  GLU181     -0.2864
     29  CB        41.0640   46.2740   74.2870 C.3   181  GLU181      0.0415
     30  CG        41.7360   45.9820   75.6050 C.3   181  GLU181      0.1163
     31  CD        40.7550   45.7590   76.7370 C.2   181  GLU181      0.3649
     32  OE1       39.7810   44.9820   76.5230 O.co2 181  GLU181     -0.2457
     33  OE2       40.9750   46.3540   77.8370 O.co2 181  GLU181     -0.2457
     34  N         38.1780   49.4400   71.4400 N.3   183  ILE183     -0.1245
     35  CA        37.6990   50.8050   71.3410 C.3   183  ILE183      0.1561
     36  C         38.8230   51.8250   71.5350 C.2   183  ILE183      0.2260
     37  O         39.0040   52.7600   70.7420 O.2   183  ILE183     -0.2867
     38  CB        36.6430   51.0300   72.3680 C.3   183  ILE183      0.0252
     39  CG1       35.2840   50.9770   71.7240 C.3   183  ILE183      0.0019
     40  CG2       36.8230   52.3710   73.0140 C.3   183  ILE183      0.0019
     41  CD1       34.3750   50.1630   72.5350 C.3   183  ILE183      0.0001
     42  N         29.4500   46.7010   67.7010 N.3   207  LEU207     -0.1231
     43  CA        29.2560   47.1640   69.0620 C.3   207  LEU207      0.1693
     44  C         27.8990   46.7740   69.6860 C.2   207  LEU207      0.2591
     45  O         26.8470   46.8400   69.0380 O.2   207  LEU207     -0.2718
     46  CB        29.4290   48.6670   69.0850 C.3   207  LEU207      0.0284
     47  CG        30.7990   49.3150   69.2530 C.3   207  LEU207      0.0019
     48  CD1       31.9600   48.3330   69.3340 C.3   207  LEU207      0.0001
     49  CD2       30.9810   50.3430   68.1550 C.3   207  LEU207      0.0001
     50  N         27.9120   46.3780   70.9500 N.am  208  ARG208     -0.1980
     51  CA        26.6500   46.0290   71.6110 C.3   208  ARG208      0.1597
     52  C         25.6700   47.2260   71.7010 C.2   208  ARG208      0.2287
     53  O         26.0440   48.3380   72.0890 O.2   208  ARG208     -0.2864
     54  CB        26.8890   45.3500   72.9760 C.3   208  ARG208      0.0334
     55  CG        27.7290   46.1520   73.9800 C.3   208  ARG208      0.0492
     56  CD        28.1030   45.3900   75.2480 C.3   208  ARG208      0.2205
     57  NE        28.7580   44.1320   74.9110 N.pl3 208  ARG208     -0.0865
     58  CZ        29.1310   43.2160   75.7720 C.cat 208  ARG208      0.5346
     59  NH1       28.9460   43.3300   77.0860 N.pl3 208  ARG208      0.1354
     60  NH2       29.6650   42.1380   75.2920 N.pl3 208  ARG208      0.1354
     61  N         26.3780   44.3010   80.3830 N.3   214  ILE214     -0.1231
     62  CA        27.8180   44.3630   80.5920 C.3   214  ILE214      0.1692
     63  C         28.0530   43.5910   81.8710 C.2   214  ILE214      0.2592
     64  O         27.3910   43.8310   82.8830 O.2   214  ILE214     -0.2718
     65  CB        28.2520   45.7850   80.8620 C.3   214  ILE214      0.0266
     66  CG1       28.1890   46.6390   79.6090 C.3   214  ILE214      0.0019
     67  CG2       29.6410   45.8030   81.4780 C.3   214  ILE214      0.0020
     68  CD1       28.4260   48.0670   79.9220 C.3   214  ILE214      0.0001
     69  N         28.9980   42.6670   81.8400 N.am  215  LYS215     -0.1966
     70  CA        29.2840   41.8790   83.0180 C.3   215  LYS215      0.1728
     71  C         27.9870   41.3260   83.5740 C.2   215  LYS215      0.2616
     72  O         27.7500   41.3140   84.7730 O.2   215  LYS215     -0.2715
     73  CB        30.0090   42.7200   84.0510 C.3   215  LYS215      0.0311
     74  CG        31.4840   42.8170   83.7700 C.3   215  LYS215      0.0038
     75  CD        32.2710   43.0920   85.0450 C.3   215  LYS215      0.0206
     76  CE        33.7550   43.3740   84.7410 C.3   215  LYS215      0.1093
     77  NZ        34.5450   42.1490   84.4270 N.3   215  LYS215     -0.1314
     78  N         27.1320   40.9010   82.6590 N.am  216  ARG216     -0.1977
     79  CA        25.8750   40.2450   82.9920 C.3   216  ARG216      0.1597
     80  C         24.7910   41.0420   83.7160 C.2   216  ARG216      0.2287
     81  O         23.7790   40.4780   84.1020 O.2   216  ARG216     -0.2864
     82  CB        26.1560   38.9460   83.7340 C.3   216  ARG216      0.0334
     83  CG        26.7890   37.9250   82.8290 C.3   216  ARG216      0.0492
     84  CD        26.1110   36.5620   82.8550 C.3   216  ARG216      0.2205
     85  NE        25.6940   36.1650   81.5100 N.pl3 216  ARG216     -0.0865
     86  CZ        24.9810   35.0740   81.2390 C.cat 216  ARG216      0.5346
     87  NH1       24.5980   34.2510   82.2180 N.pl3 216  ARG216      0.1354
     88  NH2       24.6440   34.8010   79.9850 N.pl3 216  ARG216      0.1354
     89  N         22.7170   48.2370   80.3700 N.3   220  GLN220     -0.1231
     90  CA        23.9180   48.9390   80.7730 C.3   220  GLN220      0.1698
     91  C         24.7860   49.4880   79.6450 C.2   220  GLN220      0.2593
     92  O         25.3050   50.5780   79.7410 O.2   220  GLN220     -0.2718
     93  CB        24.7210   48.0180   81.6720 C.3   220  GLN220      0.0381
     94  CG        25.4590   48.7620   82.7430 C.3   220  GLN220      0.0905
     95  CD        24.6100   49.0510   83.9490 C.2   220  GLN220      0.2608
     96  OE1       23.5820   48.4020   84.1630 O.2   220  GLN220     -0.2717
     97  NE2       25.0400   50.0230   84.7520 N.am  220  GLN220     -0.0878
     98  N         24.9560   48.7330   78.5780 N.am  221  SER221     -0.1938
     99  CA        25.7260   49.2210   77.4660 C.3   221  SER221      0.2055
    100  C         25.0800   50.5060   77.0750 C.2   221  SER221      0.2643
    101  O         23.8700   50.5900   77.1570 O.2   221  SER221     -0.2714
    102  CB        25.6050   48.2530   76.3100 C.3   221  SER221      0.2130
    103  OG        25.5990   48.9500   75.0750 O.3   221  SER221     -0.2179
    104  N         25.8530   51.4970   76.6300 N.am  222  SER222     -0.1949
    105  CA        25.2630   52.7880   76.2520 C.3   222  SER222      0.1924
    106  C         25.2440   53.0790   74.7530 C.2   222  SER222      0.2314
    107  O         25.1380   54.2260   74.3330 O.2   222  SER222     -0.2863
    108  CB        25.9490   53.9370   76.9900 C.3   222  SER222      0.2116
    109  OG        27.3110   54.0110   76.6340 O.3   222  SER222     -0.2180
    110  N         24.8870   41.8460   70.8100 N.3   305  TYR305     -0.1241
    111  CA        25.2550   41.2070   72.0530 C.3   305  TYR305      0.1605
    112  C         24.8490   39.7910   71.9320 C.2   305  TYR305      0.2264
    113  O         25.6860   38.9050   71.9530 O.2   305  TYR305     -0.2867
    114  CB        24.5370   41.8020   73.2520 C.3   305  TYR305      0.0534
    115  CG        24.8090   41.0830   74.5550 C.ar  305  TYR305     -0.0201
    116  CD1       25.9770   41.3170   75.2630 C.ar  305  TYR305     -0.0009
    117  CD2       23.8850   40.1920   75.0870 C.ar  305  TYR305     -0.0009
    118  CE1       26.2420   40.6560   76.4520 C.ar  305  TYR305      0.0417
    119  CE2       24.1340   39.5250   76.2800 C.ar  305  TYR305      0.0417
    120  CZ        25.3150   39.7610   76.9590 C.ar  305  TYR305      0.1957
    121  OH        25.5870   39.1200   78.1430 O.3   305  TYR305     -0.2866
@<TRIPOS>BOND
     1    42    43    1
     2    49    47    1
     3    45    44    2
     4    43    46    1
     5    43    44    1
     6    46    47    1
     7    47    48    1
     8    44    50   am
     9     1     2    1
    10    37    36    2
    11   110   111    1
    12     5     2    1
    13     5     6    1
    14     2     3    1
    15    50    51    1
    16    35    34    1
    17    35    36    1
    18    35    38    1
    19    51    52    1
    20    51    54    1
    21     8     6   ar
    22    52    53    2
    23     6     7   ar
    24    39    38    1
    25    39    41    1
    26   112   113    2
    27   112   111    1
    28   111   114    1
    29    16    14   am
    30    28    27    2
    31     3     9   am
    32     3     4    2
    33    38    40    1
    34     9    10    1
    35    27    26    1
    36    54    55    1
    37    14    15    2
    38    14    13    1
    39    12    11    2
    40   114   115    1
    41    10    11    1
    42    10    13    1
    43    55    56    1
    44    11    17   am
    45    26    29    1
    46    26    25    1
    47    29    30    1
    48   107   106    2
    49    20    19    2
    50   115   117   ar
    51   115   116   ar
    52   106   105    1
    53    25    19   am
    54    19    18    1
    55    57    56    1
    56    57    58    2
    57   103   102    1
    58   117   119   ar
    59   116   118   ar
    60    60    58    1
    61    17    18    1
    62    18    21    1
    63    30    31    1
    64    58    59    1
    65   105   104    1
    66   105   108    1
    67   119   120   ar
    68   102    99    1
    69   118   120   ar
    70    32    31   ar
    71   104   100   am
    72   109   108    1
    73    23    22    1
    74    23    24    1
    75    31    33   ar
    76   120   121    1
    77    21    22    1
    78   100   101    2
    79   100    99    1
    80    99    98    1
    81    98    91   am
    82    66    68    1
    83    66    65    1
    84    91    92    2
    85    91    90    1
    86    88    86    1
    87    89    90    1
    88    61    62    1
    89    62    65    1
    90    62    63    1
    91    90    93    1
    92    65    67    1
    93    86    85    2
    94    86    87    1
    95    85    84    1
    96    93    94    1
    97    69    63   am
    98    69    70    1
    99    63    64    2
   100    78    79    1
   101    78    71   am
   102    94    95    1
   103    83    84    1
   104    83    82    1
   105    79    80    1
   106    79    82    1
   107    70    71    1
   108    70    73    1
   109    71    72    2
   110    80    81    2
   111    74    73    1
   112    74    75    1
   113    95    96    2
   114    95    97   am
   115    77    76    1
   116    76    75    1
