@<TRIPOS>MOLECULE
tmp/1pezA01.pdb
 93 91 0 0 0
SMALL
GASTEIGER

@<TRIPOS>ATOM
      1  N         59.4540   82.7880   50.6780 N.3   187  GLU187     -0.1245
      2  CA        59.3050   81.8490   51.7880 C.3   187  GLU187      0.1567
      3  C         58.2330   82.3220   52.7670 C.2   187  GLU187      0.2260
      4  O         57.4230   81.5300   53.2530 O.2   187  GLU187     -0.2867
      5  CB        60.6310   81.7000   52.5400 C.3   187  GLU187      0.0388
      6  CG        60.5740   80.6950   53.6790 C.3   187  GLU187      0.1160
      7  CD        61.8340   80.6840   54.5200 C.2   187  GLU187      0.3649
      8  OE1       62.8760   81.1950   54.0550 O.co2 187  GLU187     -0.2457
      9  OE2       61.7830   80.1470   55.6440 O.co2 187  GLU187     -0.2457
     10  N         76.5690   79.9730   56.3070 N.3   598  THR598     -0.1203
     11  CA        76.8810   80.5830   55.0240 C.3   598  THR598      0.1994
     12  C         77.2260   82.0600   55.1790 C.2   598  THR598      0.2618
     13  O         76.9970   82.6630   56.2310 O.2   598  THR598     -0.2717
     14  CB        75.6740   80.4950   54.0740 C.3   598  THR598      0.1784
     15  OG1       74.5330   81.0740   54.7200 O.3   598  THR598     -0.2211
     16  CG2       75.3680   79.0480   53.7070 C.3   598  THR598      0.0376
     17  N         77.7820   82.6330   54.1160 N.am  599  ALA599     -0.1965
     18  CA        78.1000   84.0520   54.0790 C.3   599  ALA599      0.1728
     19  C         76.9890   84.6780   53.2490 C.2   599  ALA599      0.2616
     20  O         76.3630   83.9900   52.4440 O.2   599  ALA599     -0.2715
     21  CB        79.4480   84.2770   53.4090 C.3   599  ALA599      0.0334
     22  N         76.7380   85.9690   53.4440 N.am  600  LEU600     -0.1963
     23  CA        75.6900   86.6520   52.6930 C.3   600  LEU600      0.1728
     24  C         75.8160   86.4310   51.1900 C.2   600  LEU600      0.2617
     25  O         76.8900   86.6050   50.6140 O.2   600  LEU600     -0.2715
     26  CB        75.7070   88.1540   52.9990 C.3   600  LEU600      0.0311
     27  CG        74.8980   88.5660   54.2310 C.3   600  LEU600      0.0022
     28  CD1       75.0870   90.0480   54.5140 C.3   600  LEU600      0.0001
     29  CD2       73.4220   88.2540   53.9880 C.3   600  LEU600      0.0001
     30  N         74.7080   86.0460   50.5630 N.am  601  GLY601     -0.1940
     31  CA        74.7070   85.8020   49.1310 C.3   601  GLY601      0.2014
     32  C         74.9040   84.3310   48.8200 C.2   601  GLY601      0.2639
     33  O         74.6250   83.8720   47.7090 O.2   601  GLY601     -0.2714
     34  N         75.3900   83.5950   49.8140 N.am  602  GLN602     -0.1963
     35  CA        75.6370   82.1640   49.6900 C.3   602  GLN602      0.1733
     36  C         74.4460   81.4020   50.2700 C.2   602  GLN602      0.2616
     37  O         73.9900   81.7050   51.3700 O.2   602  GLN602     -0.2715
     38  CB        76.9220   81.8080   50.4410 C.3   602  GLN602      0.0408
     39  CG        77.2840   80.3350   50.4450 C.3   602  GLN602      0.0908
     40  CD        78.6040   80.0740   51.1490 C.2   602  GLN602      0.2608
     41  OE1       78.7920   80.4650   52.3030 O.2   602  GLN602     -0.2717
     42  NE2       79.5260   79.4110   50.4570 N.am  602  GLN602     -0.0878
     43  N         73.9440   80.4180   49.5290 N.am  603  ASN603     -0.1972
     44  CA        72.7850   79.6480   49.9700 C.3   603  ASN603      0.1688
     45  C         73.0020   78.1430   49.8820 C.2   603  ASN603      0.2292
     46  O         73.8670   77.6670   49.1460 O.2   603  ASN603     -0.2864
     47  CB        71.5610   80.0320   49.1350 C.3   603  ASN603      0.1181
     48  CG        71.1060   81.4550   49.3860 C.2   603  ASN603      0.2629
     49  OD1       70.4990   81.7550   50.4180 O.2   603  ASN603     -0.2716
     50  ND2       71.4030   82.3420   48.4470 N.am  603  ASN603     -0.0877
     51  N         65.2510   79.1690   55.2340 N.3   627  ASN627     -0.1225
     52  CA        65.8070   79.1880   56.5830 C.3   627  ASN627      0.1785
     53  C         65.1860   80.2930   57.4340 C.2   627  ASN627      0.2597
     54  O         65.8520   80.8710   58.2930 O.2   627  ASN627     -0.2718
     55  CB        67.3260   79.3930   56.5250 C.3   627  ASN627      0.1169
     56  CG        67.7150   80.6930   55.8380 C.2   627  ASN627      0.2627
     57  OD1       66.9090   81.6170   55.7260 O.2   627  ASN627     -0.2716
     58  ND2       68.9620   80.7750   55.3880 N.am  627  ASN627     -0.0877
     59  N         63.9100   80.5770   57.2020 N.am  628  GLN628     -0.1979
     60  CA        63.2220   81.6380   57.9280 C.3   628  GLN628      0.1601
     61  C         62.0340   81.1760   58.7690 C.2   628  GLN628      0.2287
     62  O         62.0430   81.2950   59.9970 O.2   628  GLN628     -0.2864
     63  CB        62.7330   82.7130   56.9460 C.3   628  GLN628      0.0394
     64  CG        63.8060   83.6600   56.4240 C.3   628  GLN628      0.0908
     65  CD        63.3500   84.4480   55.1920 C.2   628  GLN628      0.2608
     66  OE1       62.1520   84.6500   54.9680 O.2   628  GLN628     -0.2717
     67  NE2       64.3130   84.9050   54.3950 N.am  628  GLN628     -0.0878
     68  N         67.8800   79.7590   60.3080 N.3   633  TYR633     -0.1241
     69  CA        69.3090   79.6300   60.0640 C.3   633  TYR633      0.1605
     70  C         70.0030   79.4040   61.4120 C.2   633  TYR633      0.2264
     71  O         69.5670   79.9360   62.4310 O.2   633  TYR633     -0.2867
     72  CB        69.8180   80.9090   59.3930 C.3   633  TYR633      0.0534
     73  CG        71.3110   80.9510   59.1750 C.ar  633  TYR633     -0.0201
     74  CD1       72.1700   81.4110   60.1750 C.ar  633  TYR633     -0.0009
     75  CD2       71.8700   80.5070   57.9770 C.ar  633  TYR633     -0.0009
     76  CE1       73.5490   81.4270   59.9850 C.ar  633  TYR633      0.0417
     77  CE2       73.2450   80.5160   57.7780 C.ar  633  TYR633      0.0417
     78  CZ        74.0780   80.9760   58.7850 C.ar  633  TYR633      0.1957
     79  OH        75.4360   80.9810   58.5880 O.3   633  TYR633     -0.2866
     80  N         68.3440   74.8030   57.4180 N.3   636  TRP636     -0.1241
     81  CA        67.6670   75.0730   56.1550 C.3   636  TRP636      0.1605
     82  C         66.6860   73.9560   55.8280 C.2   636  TRP636      0.2264
     83  O         66.8840   72.8100   56.2310 O.2   636  TRP636     -0.2867
     84  CB        68.6860   75.1940   55.0190 C.3   636  TRP636      0.0550
     85  CG        69.7560   76.2230   55.2450 C.ar  636  TRP636      0.0003
     86  CD1       70.7270   76.2020   56.2060 C.ar  636  TRP636      0.0946
     87  CD2       69.9860   77.4080   54.4680 C.ar  636  TRP636      0.0152
     88  NE1       71.5500   77.2960   56.0720 N.ar  636  TRP636     -0.2442
     89  CE2       71.1180   78.0520   55.0140 C.ar  636  TRP636      0.0810
     90  CE3       69.3460   77.9860   53.3620 C.ar  636  TRP636      0.0012
     91  CZ2       71.6280   79.2460   54.4900 C.ar  636  TRP636      0.0191
     92  CZ3       69.8530   79.1740   52.8410 C.ar  636  TRP636      0.0001
     93  CH2       70.9850   79.7900   53.4060 C.ar  636  TRP636      0.0015
@<TRIPOS>BOND
     1    33    32    2
     2    50    48   am
     3    32    31    1
     4    32    34   am
     5    31    30    1
     6    47    48    1
     7    47    44    1
     8    46    45    2
     9    48    49    2
    10    43    44    1
    11    43    36   am
    12    35    34    1
    13    35    36    1
    14    35    38    1
    15    45    44    1
    16    36    37    2
    17    38    39    1
    18    39    40    1
    19    42    40   am
    20    30    24   am
    21    25    24    2
    22     1     2    1
    23    40    41    2
    24    24    23    1
    25     2     5    1
    26     2     3    1
    27    20    19    2
    28     5     6    1
    29    23    26    1
    30    23    22    1
    31     3     4    2
    32    92    90   ar
    33    92    93   ar
    34    26    27    1
    35    19    22   am
    36    19    18    1
    37    90    87   ar
    38    93    91   ar
    39    21    18    1
    40     6     7    1
    41    16    14    1
    42    29    27    1
    43     8     7   ar
    44    14    15    1
    45    14    11    1
    46    18    17    1
    47    17    12   am
    48    27    28    1
    49    67    65   am
    50    87    89   ar
    51    87    85   ar
    52    91    89   ar
    53     7     9   ar
    54    66    65    2
    55    89    88   ar
    56    84    85    1
    57    84    81    1
    58    11    12    1
    59    11    10    1
    60    12    13    2
    61    65    64    1
    62    51    52    1
    63    85    86   ar
    64    58    56   am
    65    57    56    2
    66    82    81    1
    67    82    83    2
    68    56    55    1
    69    88    86   ar
    70    81    80    1
    71    64    63    1
    72    55    52    1
    73    52    53    1
    74    63    60    1
    75    59    53   am
    76    59    60    1
    77    53    54    2
    78    77    75   ar
    79    77    78   ar
    80    60    61    1
    81    75    73   ar
    82    79    78    1
    83    61    62    2
    84    78    76   ar
    85    73    72    1
    86    73    74   ar
    87    72    69    1
    88    76    74   ar
    89    69    68    1
    90    69    70    1
    91    70    71    2
