@<TRIPOS>MOLECULE
tmp/1pezA02.pdb
 185 183 0 0 0
SMALL
GASTEIGER

@<TRIPOS>ATOM
      1  N         33.0140   92.2200   57.2940 N.3    89  TYR89      -0.1241
      2  CA        34.3250   92.8560   57.3370 C.3    89  TYR89       0.1605
      3  C         34.1610   94.3610   57.4840 C.2    89  TYR89       0.2264
      4  O         33.9320   95.0770   56.5030 O.2    89  TYR89      -0.2867
      5  CB        35.1240   92.5430   56.0650 C.3    89  TYR89       0.0534
      6  CG        35.7520   91.1660   56.0520 C.ar   89  TYR89      -0.0201
      7  CD1       36.6380   90.7730   57.0580 C.ar   89  TYR89      -0.0009
      8  CD2       35.4760   90.2600   55.0310 C.ar   89  TYR89      -0.0009
      9  CE1       37.2310   89.5150   57.0470 C.ar   89  TYR89       0.0417
     10  CE2       36.0670   88.9970   55.0110 C.ar   89  TYR89       0.0417
     11  CZ        36.9410   88.6320   56.0220 C.ar   89  TYR89       0.1957
     12  OH        37.5160   87.3810   56.0120 O.3    89  TYR89      -0.2866
     13  N         30.7040   83.9950   46.9220 N.3    97  TYR97      -0.1227
     14  CA        30.2900   84.0160   45.5210 C.3    97  TYR97       0.1736
     15  C         31.4570   83.7520   44.5610 C.2    97  TYR97       0.2595
     16  O         31.2670   83.2210   43.4660 O.2    97  TYR97      -0.2718
     17  CB        29.6610   85.3660   45.1760 C.3    97  TYR97       0.0548
     18  CG        30.6680   86.4850   45.0620 C.ar   97  TYR97      -0.0200
     19  CD1       31.1640   87.1230   46.1940 C.ar   97  TYR97      -0.0009
     20  CD2       31.1520   86.8830   43.8160 C.ar   97  TYR97      -0.0009
     21  CE1       32.1220   88.1330   46.0890 C.ar   97  TYR97       0.0417
     22  CE2       32.1090   87.8890   43.6990 C.ar   97  TYR97       0.0417
     23  CZ        32.5900   88.5070   44.8370 C.ar   97  TYR97       0.1957
     24  OH        33.5520   89.4850   44.7220 O.3    97  TYR97      -0.2866
     25  N         32.6610   84.1260   44.9780 N.am   98  HIS98      -0.1975
     26  CA        33.8520   83.9700   44.1490 C.3    98  HIS98       0.1656
     27  C         34.3950   82.5450   44.1340 C.2    98  HIS98       0.2291
     28  O         35.2100   82.1980   43.2760 O.2    98  HIS98      -0.2864
     29  CB        34.9340   84.9370   44.6270 C.3    98  HIS98       0.0771
     30  CG        35.1570   84.8960   46.1030 C.ar   98  HIS98       0.0820
     31  ND1       35.7060   83.8060   46.7400 N.ar   98  HIS98      -0.2267
     32  CD2       34.8650   85.7940   47.0730 C.ar   98  HIS98       0.1154
     33  CE1       35.7430   84.0320   48.0410 C.ar   98  HIS98       0.1986
     34  NE2       35.2380   85.2310   48.2700 N.ar   98  HIS98      -0.2212
     35  N         36.4360   81.0440   46.2170 N.3   100  TYR100     -0.1227
     36  CA        37.7950   80.8450   46.7050 C.3   100  TYR100      0.1736
     37  C         37.9090   80.4120   48.1650 C.2   100  TYR100      0.2595
     38  O         39.0140   80.2430   48.6790 O.2   100  TYR100     -0.2718
     39  CB        38.6200   82.1140   46.4660 C.3   100  TYR100      0.0548
     40  CG        38.9990   82.3090   45.0130 C.ar  100  TYR100     -0.0200
     41  CD1       39.8210   81.3860   44.3620 C.ar  100  TYR100     -0.0009
     42  CD2       38.5320   83.4040   44.2850 C.ar  100  TYR100     -0.0009
     43  CE1       40.1720   81.5460   43.0220 C.ar  100  TYR100      0.0417
     44  CE2       38.8750   83.5750   42.9430 C.ar  100  TYR100      0.0417
     45  CZ        39.6960   82.6410   42.3170 C.ar  100  TYR100      0.1957
     46  OH        40.0450   82.7990   40.9920 O.3   100  TYR100     -0.2866
     47  N         36.7700   80.2230   48.8230 N.am  101  TRP101     -0.1976
     48  CA        36.7530   79.7980   50.2210 C.3   101  TRP101      0.1640
     49  C         36.2340   78.3670   50.3200 C.2   101  TRP101      0.2290
     50  O         35.0950   78.1350   50.7320 O.2   101  TRP101     -0.2864
     51  CB        35.8570   80.7220   51.0560 C.3   101  TRP101      0.0576
     52  CG        36.3040   82.1550   51.0830 C.ar  101  TRP101      0.0006
     53  CD1       37.5410   82.6340   50.7650 C.ar  101  TRP101      0.0946
     54  CD2       35.5290   83.2900   51.4960 C.ar  101  TRP101      0.0152
     55  NE1       37.5870   83.9930   50.9540 N.ar  101  TRP101     -0.2442
     56  CE2       36.3660   84.4240   51.4030 C.ar  101  TRP101      0.0810
     57  CE3       34.2080   83.4580   51.9380 C.ar  101  TRP101      0.0012
     58  CZ2       35.9280   85.7140   51.7360 C.ar  101  TRP101      0.0191
     59  CZ3       33.7710   84.7430   52.2720 C.ar  101  TRP101      0.0001
     60  CH2       34.6330   85.8530   52.1670 C.ar  101  TRP101      0.0015
     61  N         44.5010   77.0150   50.4730 N.3   140  HIS140     -0.1241
     62  CA        43.7920   77.2850   51.7140 C.3   140  HIS140      0.1621
     63  C         42.3390   76.8420   51.6710 C.2   140  HIS140      0.2264
     64  O         41.8190   76.4350   50.6310 O.2   140  HIS140     -0.2867
     65  CB        43.8050   78.7890   51.9650 C.3   140  HIS140      0.0745
     66  CG        43.2390   79.5710   50.8230 C.ar  140  HIS140      0.0817
     67  ND1       43.9790   79.8920   49.7040 N.ar  140  HIS140     -0.2268
     68  CD2       41.9760   79.9920   50.5710 C.ar  140  HIS140      0.1154
     69  CE1       43.1960   80.4730   48.8120 C.ar  140  HIS140      0.1986
     70  NE2       41.9750   80.5440   49.3120 N.ar  140  HIS140     -0.2212
     71  N         38.3210   81.9100   55.4140 N.3   143  PRO143     -0.2116
     72  CA        38.6410   82.8400   56.5040 C.3   143  PRO143      0.1372
     73  C         38.4950   82.1860   57.8750 C.2   143  PRO143      0.2244
     74  O         37.5030   81.5120   58.1490 O.2   143  PRO143     -0.2868
     75  CB        37.6380   83.9680   56.2930 C.3   143  PRO143      0.0268
     76  CG        37.4940   83.9940   54.8110 C.3   143  PRO143      0.0207
     77  CD        37.3690   82.5290   54.4740 C.3   143  PRO143      0.0892
     78  N         47.6220   83.7140   53.8780 N.3   194  LEU194     -0.1231
     79  CA        47.3400   84.8160   52.9750 C.3   194  LEU194      0.1693
     80  C         46.1600   85.5070   53.6350 C.2   194  LEU194      0.2592
     81  O         45.0480   84.9820   53.6270 O.2   194  LEU194     -0.2718
     82  CB        46.9250   84.3100   51.5920 C.3   194  LEU194      0.0284
     83  CG        48.0010   83.6750   50.7140 C.3   194  LEU194      0.0019
     84  CD1       47.3890   83.2850   49.3700 C.3   194  LEU194      0.0001
     85  CD2       49.1460   84.6580   50.5150 C.3   194  LEU194      0.0001
     86  N         46.4070   86.6690   54.2270 N.am  195  TYR195     -0.1962
     87  CA        45.3570   87.4100   54.9120 C.3   195  TYR195      0.1771
     88  C         44.8740   86.5890   56.1060 C.2   195  TYR195      0.2620
     89  O         45.6550   86.2730   57.0050 O.2   195  TYR195     -0.2715
     90  CB        44.1950   87.6890   53.9510 C.3   195  TYR195      0.0574
     91  CG        44.6380   88.2780   52.6320 C.ar  195  TYR195     -0.0198
     92  CD1       45.3180   89.4950   52.5820 C.ar  195  TYR195     -0.0009
     93  CD2       44.4000   87.6070   51.4320 C.ar  195  TYR195     -0.0009
     94  CE1       45.7540   90.0290   51.3710 C.ar  195  TYR195      0.0417
     95  CE2       44.8300   88.1320   50.2150 C.ar  195  TYR195      0.0417
     96  CZ        45.5070   89.3420   50.1930 C.ar  195  TYR195      0.1957
     97  OH        45.9410   89.8620   48.9930 O.3   195  TYR195     -0.2866
     98  N         43.5920   86.2320   56.1070 N.am  196  ASP196     -0.1957
     99  CA        43.0200   85.4550   57.2050 C.3   196  ASP196      0.1840
    100  C         42.5830   84.0660   56.7510 C.2   196  ASP196      0.2621
    101  O         41.8700   83.3650   57.4750 O.2   196  ASP196     -0.2715
    102  CB        41.8240   86.2030   57.7980 C.3   196  ASP196      0.1450
    103  CG        40.7030   86.4020   56.7930 C.2   196  ASP196      0.3671
    104  OD1       40.9470   86.2220   55.5810 O.co2 196  ASP196     -0.2456
    105  OD2       39.5800   86.7480   57.2120 O.co2 196  ASP196     -0.2456
    106  N         43.0190   83.6770   55.5540 N.am  197  LEU197     -0.1977
    107  CA        42.6770   82.3800   54.9750 C.3   197  LEU197      0.1596
    108  C         43.5170   81.2720   55.6040 C.2   197  LEU197      0.2287
    109  O         44.7460   81.3220   55.5720 O.2   197  LEU197     -0.2864
    110  CB        42.9150   82.4000   53.4610 C.3   197  LEU197      0.0297
    111  CG        42.1980   83.4630   52.6170 C.3   197  LEU197      0.0022
    112  CD1       42.7210   83.4140   51.1830 C.3   197  LEU197      0.0001
    113  CD2       40.6910   83.2250   52.6490 C.3   197  LEU197      0.0001
    114  N         43.2100   75.7610   36.5350 N.3   227  ARG227     -0.1245
    115  CA        43.8010   77.0620   36.8210 C.3   227  ARG227      0.1563
    116  C         44.1200   77.0650   38.3150 C.2   227  ARG227      0.2260
    117  O         43.2220   77.1720   39.1510 O.2   227  ARG227     -0.2867
    118  CB        42.8160   78.1870   36.4680 C.3   227  ARG227      0.0307
    119  CG        43.3620   79.6150   36.6360 C.3   227  ARG227      0.0489
    120  CD        43.3750   80.0620   38.0970 C.3   227  ARG227      0.2205
    121  NE        43.6060   81.5000   38.2280 N.pl3 227  ARG227     -0.0865
    122  CZ        43.5460   82.1690   39.3750 C.cat 227  ARG227      0.5346
    123  NH1       43.2620   81.5360   40.5020 N.pl3 227  ARG227      0.1354
    124  NH2       43.7660   83.4750   39.3980 N.pl3 227  ARG227      0.1354
    125  N         45.3490   78.3520   41.8650 N.3   229  ASP229     -0.1225
    126  CA        45.2870   79.5840   42.6420 C.3   229  ASP229      0.1805
    127  C         46.5610   79.8560   43.4550 C.2   229  ASP229      0.2597
    128  O         47.1490   78.9370   44.0190 O.2   229  ASP229     -0.2718
    129  CB        44.0810   79.4910   43.5750 C.3   229  ASP229      0.1424
    130  CG        43.7370   80.8070   44.2210 C.2   229  ASP229      0.3668
    131  OD1       43.4750   81.7670   43.4750 O.co2 229  ASP229     -0.2456
    132  OD2       43.7170   80.8760   45.4700 O.co2 229  ASP229     -0.2456
    133  N         46.9680   81.1250   43.5120 N.am  230  VAL230     -0.1980
    134  CA        48.1600   81.5770   44.2470 C.3   230  VAL230      0.1595
    135  C         49.3120   80.5770   44.3450 C.2   230  VAL230      0.2287
    136  O         49.7670   80.2560   45.4390 O.2   230  VAL230     -0.2864
    137  CB        47.8000   82.0320   45.6950 C.3   230  VAL230      0.0276
    138  CG1       46.9110   83.2690   45.6510 C.3   230  VAL230      0.0022
    139  CG2       47.1010   80.9060   46.4500 C.3   230  VAL230      0.0022
    140  N         48.4710   80.8690   38.9690 N.3   257  GLU257     -0.1245
    141  CA        48.4530   82.3170   39.0700 C.3   257  GLU257      0.1567
    142  C         49.5960   82.8140   39.9440 C.2   257  GLU257      0.2260
    143  O         49.6160   82.5830   41.1530 O.2   257  GLU257     -0.2867
    144  CB        47.1330   82.7930   39.6560 C.3   257  GLU257      0.0388
    145  CG        47.0890   84.2860   39.8460 C.3   257  GLU257      0.1160
    146  CD        46.2090   84.6740   40.9980 C.2   257  GLU257      0.3649
    147  OE1       46.4100   84.1160   42.0970 O.co2 257  GLU257     -0.2457
    148  OE2       45.3260   85.5330   40.8120 O.co2 257  GLU257     -0.2457
    149  N         39.8330   89.4130   37.3950 N.3   327  HIS327     -0.1226
    150  CA        39.0720   89.7310   38.6010 C.3   327  HIS327      0.1752
    151  C         39.8710   90.3790   39.7310 C.2   327  HIS327      0.2596
    152  O         39.3060   90.7250   40.7700 O.2   327  HIS327     -0.2718
    153  CB        38.4110   88.4610   39.1270 C.3   327  HIS327      0.0759
    154  CG        39.3790   87.3520   39.3920 C.ar  327  HIS327      0.0818
    155  ND1       40.1730   86.8080   38.4070 N.ar  327  HIS327     -0.2268
    156  CD2       39.7070   86.7090   40.5370 C.ar  327  HIS327      0.1154
    157  CE1       40.9520   85.8800   38.9330 C.ar  327  HIS327      0.1986
    158  NE2       40.6890   85.8000   40.2250 N.ar  327  HIS327     -0.2212
    159  N         41.1770   90.5390   39.5390 N.am  328  ASP328     -0.1974
    160  CA        42.0250   91.1500   40.5580 C.3   328  ASP328      0.1709
    161  C         42.6850   92.4310   40.0570 C.2   328  ASP328      0.2293
    162  O         43.6820   92.8860   40.6180 O.2   328  ASP328     -0.2864
    163  CB        43.1030   90.1640   41.0210 C.3   328  ASP328      0.1436
    164  CG        42.5160   88.9090   41.6610 C.2   328  ASP328      0.3671
    165  OD1       41.5730   89.0260   42.4750 O.co2 328  ASP328     -0.2456
    166  OD2       43.0080   87.8030   41.3560 O.co2 328  ASP328     -0.2456
    167  N         38.5000   94.8590   42.9370 N.3   371  ASP371     -0.1239
    168  CA        37.5180   94.0110   43.6060 C.3   371  ASP371      0.1674
    169  C         36.7120   94.8070   44.6280 C.2   371  ASP371      0.2266
    170  O         37.2810   95.5210   45.4490 O.2   371  ASP371     -0.2867
    171  CB        38.2460   92.8440   44.2850 C.3   371  ASP371      0.1410
    172  CG        37.3250   91.9810   45.1210 C.2   371  ASP371      0.3668
    173  OD1       36.1970   91.6900   44.6700 O.co2 371  ASP371     -0.2456
    174  OD2       37.7390   91.5780   46.2290 O.co2 371  ASP371     -0.2456
    175  N         33.7470   92.8920   39.1350 N.3   375  ARG375     -0.1245
    176  CA        32.9990   91.6400   39.0700 C.3   375  ARG375      0.1563
    177  C         31.4930   91.8520   38.9740 C.2   375  ARG375      0.2260
    178  O         30.7110   91.1110   39.5740 O.2   375  ARG375     -0.2867
    179  CB        33.3280   90.7890   40.2990 C.3   375  ARG375      0.0307
    180  CG        34.8200   90.6070   40.5010 C.3   375  ARG375      0.0489
    181  CD        35.1540   90.0100   41.8530 C.3   375  ARG375      0.2205
    182  NE        36.5990   89.9070   42.0360 N.pl3 375  ARG375     -0.0865
    183  CZ        37.1810   89.2670   43.0440 C.cat 375  ARG375      0.5346
    184  NH1       36.4400   88.6710   43.9660 N.pl3 375  ARG375      0.1354
    185  NH2       38.5050   89.2200   43.1270 N.pl3 375  ARG375      0.1354
@<TRIPOS>BOND
     1   118   119    1
     2   118   115    1
     3   114   115    1
     4   119   120    1
     5   115   116    1
     6   149   150    1
     7   120   121    1
     8   121   122    2
     9   116   117    2
    10   155   157   ar
    11   155   154   ar
    12   150   153    1
    13   150   151    1
    14   157   158   ar
    15   140   141    1
    16   177   176    1
    17   177   178    2
    18   176   175    1
    19   176   179    1
    20   141   144    1
    21   141   142    1
    22   153   154    1
    23   122   124    1
    24   122   123    1
    25   154   156   ar
    26   159   151   am
    27   159   160    1
    28   144   145    1
    29   151   152    2
    30   145   146    1
    31   142   143    2
    32   161   160    1
    33   161   162    2
    34   158   156   ar
    35   179   180    1
    36   180   181    1
    37   160   163    1
    38   148   146   ar
    39    46    45    1
    40   146   147   ar
    41   163   164    1
    42   166   164   ar
    43   164   165   ar
    44   181   182    1
    45   125   126    1
    46   182   183    2
    47    45    44   ar
    48    45    43   ar
    49   126   127    1
    50   126   129    1
    51   167   168    1
    52    44    42   ar
    53    43    41   ar
    54   183   185    1
    55   183   184    1
    56    28    27    2
    57   127   133   am
    58   127   128    2
    59    16    15    2
    60   131   130   ar
    61   133   134    1
    62   129   130    1
    63   168   171    1
    64   168   169    1
    65    22    20   ar
    66    22    23   ar
    67    20    18   ar
    68    27    26    1
    69    26    29    1
    70    26    25    1
    71   130   132   ar
    72   134   135    1
    73   134   137    1
    74    42    40   ar
    75   171   172    1
    76   135   136    2
    77    41    40   ar
    78    15    25   am
    79    15    14    1
    80    29    30    1
    81   169   170    2
    82   173   172   ar
    83    24    23    1
    84    23    21   ar
    85    40    39    1
    86    18    17    1
    87    18    19   ar
    88   172   174   ar
    89    17    14    1
    90    14    13    1
    91   138   137    1
    92   137   139    1
    93    21    19   ar
    94    30    31   ar
    95    30    32   ar
    96    35    36    1
    97    39    36    1
    98    36    37    1
    99    31    33   ar
   100    32    34   ar
   101    33    34   ar
   102    37    38    2
   103    37    47   am
   104    69    70   ar
   105    69    67   ar
   106    47    48    1
   107    97    96    1
   108    70    68   ar
   109    84    83    1
   110    67    66   ar
   111    96    95   ar
   112    96    94   ar
   113    95    93   ar
   114    48    49    1
   115    48    51    1
   116    49    50    2
   117    61    62    1
   118    85    83    1
   119    68    66   ar
   120    64    63    2
   121    83    82    1
   122    53    55   ar
   123    53    52   ar
   124    66    65    1
   125    55    56   ar
   126    51    52    1
   127    52    54   ar
   128   112   111    1
   129    94    92   ar
   130    56    54   ar
   131    56    58   ar
   132    93    91   ar
   133    54    57   ar
   134    82    79    1
   135    63    62    1
   136    62    65    1
   137    58    60   ar
   138    57    59   ar
   139    60    59   ar
   140    92    91   ar
   141   111   113    1
   142   111   110    1
   143    91    90    1
   144    79    80    1
   145    79    78    1
   146   110   107    1
   147    81    80    2
   148    80    86   am
   149    90    87    1
   150    86    87    1
   151    77    76    1
   152    77    71    1
   153    76    75    1
   154    87    88    1
   155   107   106    1
   156   107   108    1
   157    10     8   ar
   158    10    11   ar
   159     8     6   ar
   160    71    72    1
   161   106   100   am
   162   109   108    2
   163   104   103   ar
   164    12    11    1
   165    11     9   ar
   166     6     5    1
   167     6     7   ar
   168     5     2    1
   169    88    98   am
   170    88    89    2
   171    98    99    1
   172    75    72    1
   173     4     3    2
   174    72    73    1
   175   100    99    1
   176   100   101    2
   177   103   105   ar
   178   103   102    1
   179     9     7   ar
   180    99   102    1
   181     1     2    1
   182     2     3    1
   183    73    74    2
