@<TRIPOS>MOLECULE
tmp/1pf7A00.pdb
 121 114 0 0 0
SMALL
GASTEIGER

@<TRIPOS>ATOM
      1  N         46.1990   43.5230   32.4440 N.3    32  SER32      -0.1217
      2  CA        45.5650   44.8300   32.6880 C.3    32  SER32       0.1889
      3  C         44.3300   45.0440   31.8100 C.2    32  SER32       0.2288
      4  O         44.3710   44.7740   30.6100 O.2    32  SER32      -0.2866
      5  CB        46.5610   45.9740   32.4410 C.3    32  SER32       0.2089
      6  OG        47.7000   45.8650   33.2790 O.3    32  SER32      -0.2183
      7  N         54.1590   41.5580   39.0060 N.3    85  HIS85      -0.1241
      8  CA        55.1620   41.7730   37.9630 C.3    85  HIS85       0.1621
      9  C         56.5100   41.9760   38.6320 C.2    85  HIS85       0.2264
     10  O         56.5860   42.5360   39.7350 O.2    85  HIS85      -0.2867
     11  CB        54.8730   43.0460   37.1810 C.3    85  HIS85       0.0745
     12  CG        53.5660   43.0550   36.4610 C.ar   85  HIS85       0.0817
     13  ND1       52.4040   43.5520   37.0200 N.ar   85  HIS85      -0.2268
     14  CD2       53.2510   42.7080   35.1920 C.ar   85  HIS85       0.1154
     15  CE1       51.4340   43.5150   36.1300 C.ar   85  HIS85       0.1986
     16  NE2       51.9200   43.0090   35.0110 N.ar   85  HIS85      -0.2212
     17  N         58.7520   44.1110   37.8190 N.3    87  TYR87      -0.1241
     18  CA        58.8980   45.5610   37.9840 C.3    87  TYR87       0.1605
     19  C         58.3550   46.2010   39.2560 C.2    87  TYR87       0.2264
     20  O         58.7500   47.3150   39.5880 O.2    87  TYR87      -0.2867
     21  CB        58.3620   46.3250   36.7660 C.3    87  TYR87       0.0534
     22  CG        56.8570   46.3880   36.6250 C.ar   87  TYR87      -0.0201
     23  CD1       56.2270   45.9140   35.4770 C.ar   87  TYR87      -0.0009
     24  CD2       56.0660   46.9370   37.6190 C.ar   87  TYR87      -0.0009
     25  CE1       54.8520   45.9920   35.3410 C.ar   87  TYR87       0.0417
     26  CE2       54.7090   47.0150   37.4870 C.ar   87  TYR87       0.0417
     27  CZ        54.1090   46.5470   36.3570 C.ar   87  TYR87       0.1957
     28  OH        52.7500   46.6360   36.2610 O.3    87  TYR87      -0.2866
     29  N         48.5030   42.6110   28.4900 N.3   115  ALA115     -0.1245
     30  CA        48.3190   43.7780   27.6320 C.3   115  ALA115      0.1562
     31  C         49.7340   43.9550   27.1270 C.2   115  ALA115      0.2260
     32  O         50.6720   43.9610   27.9080 O.2   115  ALA115     -0.2867
     33  CB        47.8820   44.9780   28.4370 C.3   115  ALA115      0.0290
     34  N         52.5320   45.4920   23.7840 N.3   117  GLY117     -0.1225
     35  CA        52.7330   46.4510   22.7220 C.3   117  GLY117      0.1811
     36  C         52.8790   45.7020   21.4170 C.2   117  GLY117      0.2280
     37  O         53.4680   44.6340   21.3910 O.2   117  GLY117     -0.2866
     38  N         58.9220   52.3020   29.6920 N.3   199  PHE199     -0.1227
     39  CA        58.6390   51.8100   28.3420 C.3   199  PHE199      0.1736
     40  C         59.8480   51.8450   27.3770 C.2   199  PHE199      0.2595
     41  O         60.8200   52.5920   27.5510 O.2   199  PHE199     -0.2718
     42  CB        57.3890   52.5110   27.7530 C.3   199  PHE199      0.0547
     43  CG        56.0690   52.0030   28.3110 C.ar  199  PHE199     -0.0202
     44  CD1       56.0090   50.8370   29.0700 C.ar  199  PHE199     -0.0042
     45  CD2       54.8930   52.6840   28.0710 C.ar  199  PHE199     -0.0042
     46  CE1       54.8100   50.3660   29.5730 C.ar  199  PHE199     -0.0003
     47  CE2       53.6900   52.2120   28.5750 C.ar  199  PHE199     -0.0003
     48  CZ        53.6540   51.0550   29.3250 C.ar  199  PHE199     -0.0000
     49  N         59.7520   51.0260   26.3440 N.am  200  GLU200     -0.1979
     50  CA        60.7970   50.8440   25.3530 C.3   200  GLU200      0.1602
     51  C         61.1410   52.0470   24.5050 C.2   200  GLU200      0.2287
     52  O         60.2740   52.8390   24.1360 O.2   200  GLU200     -0.2864
     53  CB        60.4360   49.6620   24.4340 C.3   200  GLU200      0.0415
     54  CG        60.1840   48.3260   25.1600 C.3   200  GLU200      0.1163
     55  CD        58.9030   48.3200   26.0080 C.2   200  GLU200      0.3649
     56  OE1       58.9540   47.8570   27.1760 O.co2 200  GLU200     -0.2457
     57  OE2       57.8520   48.7910   25.5090 O.co2 200  GLU200     -0.2457
     58  N         55.4190   42.8060   23.0770 N.3   216  VAL216     -0.1231
     59  CA        56.2430   43.0010   24.2710 C.3   216  VAL216      0.1692
     60  C         55.4040   43.3440   25.4920 C.2   216  VAL216      0.2593
     61  O         54.4970   44.1780   25.4370 O.2   216  VAL216     -0.2718
     62  CB        57.3380   44.1160   24.0830 C.3   216  VAL216      0.0266
     63  CG1       56.7240   45.4360   23.6150 C.3   216  VAL216      0.0020
     64  CG2       58.1150   44.3270   25.3860 C.3   216  VAL216      0.0020
     65  N         55.7290   42.7120   26.6060 N.am  217  GLY217     -0.1942
     66  CA        55.0030   42.9690   27.8250 C.3   217  GLY217      0.2014
     67  C         55.9580   42.7070   28.9570 C.2   217  GLY217      0.2639
     68  O         57.0940   42.2980   28.7180 O.2   217  GLY217     -0.2714
     69  N         55.4730   42.8410   30.1870 N.am  218  MET218     -0.1963
     70  CA        56.3090   42.6990   31.3570 C.3   218  MET218      0.1736
     71  C         55.8240   41.6330   32.2960 C.2   218  MET218      0.2617
     72  O         56.0780   41.7200   33.4930 O.2   218  MET218     -0.2715
     73  CB        56.3520   44.0440   32.1010 C.3   218  MET218      0.0427
     74  CG        56.7650   45.2450   31.2270 C.3   218  MET218      0.0599
     75  SD        56.5740   46.8660   31.9910 S.3   218  MET218     -0.1393
     76  CE        56.9800   47.8610   30.6580 C.3   218  MET218      0.0692
     77  N         55.1800   40.6000   31.7700 N.am  219  SER219     -0.1950
     78  CA        54.6580   39.5460   32.6250 C.3   219  SER219      0.1924
     79  C         54.5390   38.2470   31.8520 C.2   219  SER219      0.2314
     80  O         55.3450   37.9870   30.9660 O.2   219  SER219     -0.2863
     81  CB        53.2860   39.9750   33.1550 C.3   219  SER219      0.2116
     82  OG        52.4030   40.3550   32.1010 O.3   219  SER219     -0.2180
     83  N         47.6600   46.6440   23.2650 N.3   241  THR241     -0.1203
     84  CA        47.2370   47.9490   23.7810 C.3   241  THR241      0.1994
     85  C         47.8310   49.1790   23.0750 C.2   241  THR241      0.2617
     86  O         47.1840   50.2150   22.9710 O.2   241  THR241     -0.2717
     87  CB        47.4960   48.0460   25.2970 C.3   241  THR241      0.1784
     88  OG1       48.8940   47.8800   25.5870 O.3   241  THR241     -0.2211
     89  CG2       46.7250   46.9660   25.9880 C.3   241  THR241      0.0376
     90  N         49.0760   49.0860   22.6320 N.am  242  ASN242     -0.1974
     91  CA        49.7010   50.1870   21.9130 C.3   242  ASN242      0.1688
     92  C         50.5520   49.5730   20.8040 C.2   242  ASN242      0.2292
     93  O         50.6030   48.3520   20.6850 O.2   242  ASN242     -0.2864
     94  CB        50.5350   51.0710   22.8550 C.3   242  ASN242      0.1181
     95  CG        51.8210   50.4160   23.3000 C.2   242  ASN242      0.2629
     96  OD1       51.8090   49.3620   23.9370 O.2   242  ASN242     -0.2716
     97  ND2       52.9460   51.0520   22.9900 N.am  242  ASN242     -0.0877
     98  N         54.3780   50.0290   18.6150 N.3   244  VAL244     -0.1245
     99  CA        55.7130   50.5490   18.9650 C.3   244  VAL244      0.1561
    100  C         56.7480   50.4080   17.8050 C.2   244  VAL244      0.2260
    101  O         56.4280   49.7650   16.8050 O.2   244  VAL244     -0.2867
    102  CB        56.2630   49.7410   20.2270 C.3   244  VAL244      0.0252
    103  CG1       55.2160   49.6220   21.3420 C.3   244  VAL244      0.0019
    104  CG2       56.6430   48.3460   19.8380 C.3   244  VAL244      0.0019
    105  N         50.4150   53.1800   26.3500 N.3   256  HIS256     -0.1241
    106  CA        49.4090   52.2790   26.9410 C.3   256  HIS256      0.1621
    107  C         48.0990   52.8450   27.4840 C.2   256  HIS256      0.2264
    108  O         47.2280   52.0530   27.8720 O.2   256  HIS256     -0.2867
    109  CB        50.0420   51.4230   28.0440 C.3   256  HIS256      0.0745
    110  CG        49.9340   52.0290   29.4110 C.ar  256  HIS256      0.0817
    111  ND1       49.3030   51.3930   30.4600 N.ar  256  HIS256     -0.2268
    112  CD2       50.3180   53.2420   29.8840 C.ar  256  HIS256      0.1154
    113  CE1       49.2980   52.1880   31.5180 C.ar  256  HIS256      0.1986
    114  NE2       49.9080   53.3170   31.1940 N.ar  256  HIS256     -0.2212
    115  N         44.6190   51.8690   27.7500 N.3   259  VAL259     -0.1245
    116  CA        44.1150   51.0870   28.8480 C.3   259  VAL259      0.1561
    117  C         42.6690   51.6200   29.0400 C.2   259  VAL259      0.2260
    118  O         41.8340   50.9610   29.6840 O.2   259  VAL259     -0.2867
    119  CB        45.0250   51.2570   30.1340 C.3   259  VAL259      0.0252
    120  CG1       44.9610   52.7040   30.6810 C.3   259  VAL259      0.0019
    121  CG2       44.6850   50.1820   31.2060 C.3   259  VAL259      0.0019
@<TRIPOS>BOND
     1   101   100    2
     2   100    99    1
     3    98    99    1
     4    99   102    1
     5   104   102    1
     6   102   103    1
     7    93    92    2
     8    92    91    1
     9    37    36    2
    10    36    35    1
    11    91    90    1
    12    91    94    1
    13    90    85   am
    14    35    34    1
    15    94    95    1
    16    86    85    2
    17    97    95   am
    18    85    84    1
    19    58    59    1
    20    83    84    1
    21    95    96    2
    22    63    62    1
    23    84    87    1
    24    62    59    1
    25    62    64    1
    26    52    51    2
    27    59    60    1
    28    53    54    1
    29    53    50    1
    30    51    50    1
    31    54    55    1
    32    87    88    1
    33    87    89    1
    34    50    49    1
    35    61    60    2
    36    60    65   am
    37    57    55   ar
    38    55    56   ar
    39    49    40   am
    40   105   106    1
    41    65    66    1
    42   106   107    1
    43   106   109    1
    44    31    30    1
    45    31    32    2
    46    40    41    2
    47    40    39    1
    48   107   108    2
    49    30    33    1
    50    30    29    1
    51   115   116    1
    52    42    43    1
    53    42    39    1
    54    66    67    1
    55   109   110    1
    56    45    43   ar
    57    45    47   ar
    58    43    44   ar
    59    39    38    1
    60    47    48   ar
    61    68    67    2
    62   116   117    1
    63   116   119    1
    64    67    69   am
    65   117   118    2
    66    44    46   ar
    67    48    46   ar
    68   110   112   ar
    69   110   111   ar
    70   112   114   ar
    71   119   120    1
    72   119   121    1
    73    69    70    1
    74   111   113   ar
    75     4     3    2
    76    76    75    1
    77    80    79    2
    78   114   113   ar
    79    74    75    1
    80    74    73    1
    81    70    73    1
    82    70    71    1
    83    77    71   am
    84    77    78    1
    85     3     2    1
    86    79    78    1
    87    82    81    1
    88    71    72    2
    89     5     2    1
    90     5     6    1
    91     1     2    1
    92    78    81    1
    93    16    14   ar
    94    16    15   ar
    95    14    12   ar
    96    25    23   ar
    97    25    27   ar
    98    23    22   ar
    99    15    13   ar
   100    28    27    1
   101    27    26   ar
   102    12    13   ar
   103    12    11    1
   104    22    21    1
   105    22    24   ar
   106    21    18    1
   107    11     8    1
   108    26    24   ar
   109    17    18    1
   110     8     9    1
   111     8     7    1
   112    18    19    1
   113     9    10    2
   114    19    20    2
