@<TRIPOS>MOLECULE
tmp/1pfkA00.pdb
 133 126 0 0 0
SMALL
GASTEIGER

@<TRIPOS>ATOM
      1  N          4.0150   20.5470   11.6680 N.3    12  GLY12      -0.1210
      2  CA         3.2040   19.6560   10.8220 C.3    12  GLY12       0.1956
      3  C          3.7850   18.2480   10.8390 C.2    12  GLY12       0.2611
      4  O          4.9870   18.0510   10.5880 O.2    12  GLY12      -0.2717
      5  N          2.9460   17.2700   11.1450 N.am   13  ASP13      -0.1973
      6  CA         3.4300   15.8700   11.1840 C.3    13  ASP13       0.1709
      7  C          3.8540   15.4810    9.7540 C.2    13  ASP13       0.2293
      8  O          3.3850   15.9970    8.7310 O.2    13  ASP13      -0.2864
      9  CB         2.4440   14.9230   11.8270 C.3    13  ASP13       0.1436
     10  CG         1.1720   14.6520   11.0610 C.2    13  ASP13       0.3671
     11  OD1        0.5440   15.5540   10.4690 O.co2  13  ASP13      -0.2456
     12  OD2        0.8020   13.4450   11.0750 O.co2  13  ASP13      -0.2456
     13  N          0.9450   23.0810   17.2630 N.3    73  ARG73      -0.1245
     14  CA         1.2940   24.4100   16.7220 C.3    73  ARG73       0.1563
     15  C          0.9510   25.3120   17.9180 C.2    73  ARG73       0.2260
     16  O         -0.2370   25.5930   18.1180 O.2    73  ARG73      -0.2867
     17  CB         0.5790   24.7730   15.4380 C.3    73  ARG73       0.0307
     18  CG         0.8330   23.8680   14.2390 C.3    73  ARG73       0.0489
     19  CD         0.5540   24.5610   12.9490 C.3    73  ARG73       0.2205
     20  NE         0.6660   23.7330   11.7800 N.pl3  73  ARG73      -0.0865
     21  CZ         1.6370   23.4120   10.9290 C.cat  73  ARG73       0.5346
     22  NH1        2.8840   23.8850   11.0170 N.pl3  73  ARG73       0.1354
     23  NH2        1.3770   22.5650    9.9170 N.pl3  73  ARG73       0.1354
     24  N          9.8020   21.2150   11.5750 N.3   103  GLY103     -0.1210
     25  CA        10.1140   22.0530   10.4170 C.3   103  GLY103      0.1956
     26  C         10.8790   23.3300   10.7220 C.2   103  GLY103      0.2611
     27  O         11.5470   23.5200   11.7520 O.2   103  GLY103     -0.2717
     28  N         10.7790   24.2300    9.7560 N.am  104  ASP104     -0.1973
     29  CA        11.4140   25.5520    9.7760 C.3   104  ASP104      0.1709
     30  C         11.0250   26.3160   11.0490 C.2   104  ASP104      0.2293
     31  O         11.8940   26.9610   11.6770 O.2   104  ASP104     -0.2864
     32  CB        11.1780   26.2980    8.4680 C.3   104  ASP104      0.1436
     33  CG         9.7430   26.4730    8.0270 C.2   104  ASP104      0.3671
     34  OD1        9.3610   27.5570    7.5450 O.co2 104  ASP104     -0.2456
     35  OD2        8.9450   25.5060    8.1490 O.co2 104  ASP104     -0.2456
     36  N         12.0340   17.4030   10.0080 N.3   125  GLY125     -0.1210
     37  CA        10.7940   16.6370    9.8660 C.3   125  GLY125      0.1956
     38  C          9.6650   17.4760    9.2980 C.2   125  GLY125      0.2613
     39  O          9.0130   18.1870   10.0740 O.2   125  GLY125     -0.2717
     40  N          9.4450   17.3610    7.9930 N.am  126  THR126     -0.1938
     41  CA         8.3730   18.0860    7.3020 C.3   126  THR126      0.2028
     42  C          8.1910   17.5920    5.8750 C.2   126  THR126      0.2642
     43  O          9.2080   17.3890    5.1760 O.2   126  THR126     -0.2714
     44  CB         8.7120   19.6310    7.2430 C.3   126  THR126      0.1808
     45  OG1        7.5530   20.2520    6.5850 O.3   126  THR126     -0.2208
     46  CG2       10.0110   19.9390    6.4890 C.3   126  THR126      0.0379
     47  N          6.9590   17.4820    5.4110 N.am  127  ILE127     -0.1963
     48  CA         6.7880   17.0270    4.0100 C.3   127  ILE127      0.1727
     49  C          7.2450   18.0510    2.9680 C.2   127  ILE127      0.2616
     50  O          7.6080   17.7060    1.8290 O.2   127  ILE127     -0.2715
     51  CB         5.2950   16.5880    3.7460 C.3   127  ILE127      0.0290
     52  CG1        4.3860   17.8290    3.5720 C.3   127  ILE127      0.0022
     53  CG2        4.7480   15.6120    4.8150 C.3   127  ILE127      0.0023
     54  CD1        3.0010   17.5020    2.9330 C.3   127  ILE127      0.0001
     55  N          7.2390   19.3250    3.3070 N.am  128  ASP128     -0.1971
     56  CA         7.5680   20.4760    2.4740 C.3   128  ASP128      0.1709
     57  C          8.9320   20.5760    1.8020 C.2   128  ASP128      0.2293
     58  O          8.9790   21.1210    0.6710 O.2   128  ASP128     -0.2864
     59  CB         7.2610   21.7580    3.2700 C.3   128  ASP128      0.1436
     60  CG         5.7860   22.0190    3.5070 C.2   128  ASP128      0.3671
     61  OD1        4.8710   21.4570    2.8840 O.co2 128  ASP128     -0.2456
     62  OD2        5.5570   22.8700    4.4010 O.co2 128  ASP128     -0.2456
     63  N         11.4660   22.3990    2.8380 N.3   130  ASP130     -0.1239
     64  CA        11.8770   23.7970    2.9790 C.3   130  ASP130      0.1674
     65  C         12.9070   24.1730    4.0260 C.2   130  ASP130      0.2266
     66  O         13.0470   25.3920    4.2680 O.2   130  ASP130     -0.2867
     67  CB        10.5950   24.6490    3.0900 C.3   130  ASP130      0.1410
     68  CG         9.8160   24.3980    4.3630 C.2   130  ASP130      0.3668
     69  OD1       10.2520   23.5780    5.1860 O.co2 130  ASP130     -0.2456
     70  OD2        8.7630   25.0540    4.5080 O.co2 130  ASP130     -0.2456
     71  N          0.5980   20.2110   -2.0110 N.3   170  MET170     -0.1230
     72  CA         1.0420   20.8800   -0.7740 C.3   170  MET170      0.1702
     73  C          2.4760   21.3910   -1.0080 C.2   170  MET170      0.2593
     74  O          3.0690   21.1570   -2.0870 O.2   170  MET170     -0.2718
     75  CB         0.9120   19.9800    0.4510 C.3   170  MET170      0.0401
     76  CG        -0.2820   20.4310    1.2470 C.3   170  MET170      0.0596
     77  SD        -0.6020   19.2680    2.6130 S.3   170  MET170     -0.1393
     78  CE        -2.2040   19.8690    3.1850 C.3   170  MET170      0.0692
     79  N          2.9980   22.0620    0.0100 N.am  171  GLY171     -0.1942
     80  CA         4.3590   22.6010   -0.0810 C.3   171  GLY171      0.2014
     81  C          4.4560   23.9680    0.5740 C.2   171  GLY171      0.2638
     82  O          5.5430   24.3220    1.0700 O.2   171  GLY171     -0.2714
     83  N          3.3480   24.6930    0.5840 N.am  172  ARG172     -0.1977
     84  CA         3.2870   26.0350    1.2010 C.3   172  ARG172      0.1597
     85  C          3.9710   27.0550    0.2960 C.2   172  ARG172      0.2287
     86  O          3.3470   27.5800   -0.6450 O.2   172  ARG172     -0.2864
     87  CB         3.8590   25.9490    2.6090 C.3   172  ARG172      0.0334
     88  CG         3.6770   27.1110    3.5590 C.3   172  ARG172      0.0492
     89  CD         3.9620   26.6960    4.9750 C.3   172  ARG172      0.2205
     90  NE         3.0090   27.3470    5.8540 N.pl3 172  ARG172     -0.0865
     91  CZ         2.5210   26.8880    7.0040 C.cat 172  ARG172      0.5346
     92  NH1        2.8740   25.7060    7.4990 N.pl3 172  ARG172      0.1354
     93  NH2        1.6520   27.6690    7.6680 N.pl3 172  ARG172      0.1354
     94  N          0.1210   24.9200   -3.9880 N.3   223  GLU223     -0.1182
     95  CA        -0.9920   25.5830   -3.2760 C.3   223  GLU223      0.1915
     96  C         -0.6900   27.0560   -2.9940 C.2   223  GLU223      0.2634
     97  O          0.4600   27.5110   -2.8960 O.2   223  GLU223     -0.2714
     98  CB        -1.2630   24.9390   -1.9160 C.2   223  GLU223      0.0085
     99  CG        -0.0750   24.9000   -0.9530 C.2   223  GLU223      0.0835
    100  CD        -0.3050   24.2160    0.3490 C.2   223  GLU223      0.3877
    101  OE1       -1.4070   23.8120    0.6780 O.co2 223  GLU223     -0.2406
    102  OE2        0.7230   24.1080    1.0410 O.co2 223  GLU223     -0.2406
    103  N         -1.7600   27.8130   -2.8610 N.am  224  HIS224     -0.1973
    104  CA        -1.7950   29.2460   -2.5760 C.3   224  HIS224      0.1656
    105  C         -1.2880   30.0780   -3.7490 C.2   224  HIS224      0.2291
    106  O         -0.5990   31.1020   -3.5200 O.2   224  HIS224     -0.2864
    107  CB        -0.9690   29.6690   -1.3450 C.3   224  HIS224      0.0771
    108  CG        -1.1280   28.9030   -0.0800 C.ar  224  HIS224      0.0820
    109  ND1       -2.3160   28.6400    0.5570 N.ar  224  HIS224     -0.2267
    110  CD2       -0.1470   28.3650    0.7040 C.ar  224  HIS224      0.1154
    111  CE1       -2.0650   27.9550    1.6610 C.ar  224  HIS224      0.1986
    112  NE2       -0.7620   27.7780    1.7770 N.ar  224  HIS224     -0.2212
    113  N         -4.7380   16.9800    2.7640 N.3   250  HIS250     -0.1241
    114  CA        -4.1710   16.2660    3.9000 C.3   250  HIS250      0.1621
    115  C         -3.8060   14.8080    3.7260 C.2   250  HIS250      0.2264
    116  O         -3.1000   14.2990    4.6430 O.2   250  HIS250     -0.2867
    117  CB        -4.9760   16.5010    5.2130 C.3   250  HIS250      0.0745
    118  CG        -4.6710   17.8870    5.7140 C.ar  250  HIS250      0.0817
    119  ND1       -5.2590   19.0320    5.2280 N.ar  250  HIS250     -0.2268
    120  CD2       -3.7980   18.3000    6.6560 C.ar  250  HIS250      0.1154
    121  CE1       -4.7580   20.0810    5.8590 C.ar  250  HIS250      0.1986
    122  NE2       -3.8760   19.6600    6.7350 N.ar  250  HIS250     -0.2212
    123  N         -0.0620   14.2210    3.9000 N.3   253  ARG253     -0.1245
    124  CA         0.6130   14.2230    5.1990 C.3   253  ARG253      0.1563
    125  C          0.7090   12.9100    5.9750 C.2   253  ARG253      0.2260
    126  O          1.5310   12.8210    6.9060 O.2   253  ARG253     -0.2867
    127  CB        -0.1060   15.1890    6.1740 C.3   253  ARG253      0.0307
    128  CG         0.0200   16.6740    5.9930 C.3   253  ARG253      0.0489
    129  CD         1.2760   17.3030    6.4990 C.3   253  ARG253      0.2205
    130  NE         1.1880   17.4810    7.9470 N.pl3 253  ARG253     -0.0865
    131  CZ         0.3770   18.3980    8.4860 C.cat 253  ARG253      0.5346
    132  NH1       -0.3190   19.2700    7.7720 N.pl3 253  ARG253      0.1354
    133  NH2        0.1670   18.3660    9.8030 N.pl3 253  ARG253      0.1354
@<TRIPOS>BOND
     1    94    95    1
     2   105   106    2
     3   105   104    1
     4    95    96    1
     5    95    98    1
     6    96    97    2
     7    96   103   am
     8   103   104    1
     9   104   107    1
    10    74    73    2
    11    71    72    1
    12    98    99    2
    13   107   108    1
    14    73    72    1
    15    73    79   am
    16    99   100    1
    17    72    75    1
    18    86    85    2
    19    80    79    1
    20    80    81    1
    21   108   109   ar
    22   108   110   ar
    23    85    84    1
    24   100   101   ar
    25   100   102   ar
    26    75    76    1
    27   109   111   ar
    28    81    83   am
    29    81    82    2
    30    83    84    1
    31    58    57    2
    32   110   112   ar
    33    84    87    1
    34    76    77    1
    35   111   112   ar
    36    57    56    1
    37    50    49    2
    38    56    59    1
    39    56    55    1
    40    87    88    1
    41    77    78    1
    42   113   114    1
    43    63    64    1
    44    61    60   ar
    45    54    52    1
    46    49    55   am
    47    49    48    1
    48    64    67    1
    49    64    65    1
    50    67    68    1
    51    59    60    1
    52    60    62   ar
    53    88    89    1
    54    52    51    1
    55   115   114    1
    56   115   116    2
    57    51    48    1
    58    51    53    1
    59   123   124    1
    60   114   117    1
    61    48    47    1
    62    65    66    2
    63    68    70   ar
    64    68    69   ar
    65    89    90    1
    66    43    42    2
    67   124   125    1
    68   124   127    1
    69   117   118    1
    70   119   118   ar
    71   119   121   ar
    72    47    42   am
    73   118   120   ar
    74    90    91    2
    75   121   122   ar
    76    42    41    1
    77   125   126    2
    78   128   127    1
    79   128   129    1
    80    46    44    1
    81   129   130    1
    82    45    44    1
    83   120   122   ar
    84    91    92    1
    85    91    93    1
    86    44    41    1
    87    41    40    1
    88    34    33   ar
    89   132   131    1
    90   130   131    2
    91    40    38   am
    92    33    35   ar
    93    33    32    1
    94    32    29    1
    95   131   133    1
    96     8     7    2
    97    38    37    1
    98    38    39    2
    99     7     6    1
   100    28    29    1
   101    28    26   am
   102    29    30    1
   103    37    36    1
   104    23    21    1
   105    25    26    1
   106    25    24    1
   107    11    10   ar
   108     4     3    2
   109    26    27    2
   110     2     3    1
   111     2     1    1
   112     3     5   am
   113    21    22    1
   114    21    20    2
   115    30    31    2
   116    10    12   ar
   117    10     9    1
   118     5     6    1
   119     6     9    1
   120    20    19    1
   121    19    18    1
   122    18    17    1
   123    17    14    1
   124    14    13    1
   125    14    15    1
   126    15    16    2
