@<TRIPOS>MOLECULE
tmp/1pfkA01.pdb
 160 154 0 0 0
SMALL
GASTEIGER

@<TRIPOS>ATOM
      1  N          7.4700   18.4720   16.7250 N.3    10  SER10      -0.1202
      2  CA         6.8460   19.7970   16.6000 C.3    10  SER10       0.2020
      3  C          6.4770   20.1530   15.1700 C.2    10  SER10       0.2619
      4  O          7.1320   19.7040   14.2160 O.2    10  SER10      -0.2717
      5  CB         7.8750   20.7730   17.1910 C.3    10  SER10       0.2103
      6  OG         7.4300   22.1020   17.0200 O.3    10  SER10      -0.2182
      7  N          5.4490   20.9650   15.0230 N.am   11  GLY11      -0.1942
      8  CA         4.9750   21.4020   13.7050 C.3    11  GLY11       0.2014
      9  C          4.1100   20.3620   12.9930 C.2    11  GLY11       0.2639
     10  O          3.5530   19.4550   13.6260 O.2    11  GLY11      -0.2714
     11  N          4.0150   20.5470   11.6680 N.am   12  GLY12      -0.1954
     12  CA         3.2040   19.6560   10.8220 C.3    12  GLY12       0.1869
     13  C          3.7850   18.2480   10.8390 C.2    12  GLY12       0.2309
     14  O          4.9870   18.0510   10.5880 O.2    12  GLY12      -0.2863
     15  N          5.9710   21.6570   21.6560 N.3    42  TYR42      -0.1241
     16  CA         6.2470   22.7240   22.6300 C.3    42  TYR42       0.1605
     17  C          5.0990   22.9340   23.6040 C.2    42  TYR42       0.2264
     18  O          5.3390   23.6030   24.6270 O.2    42  TYR42      -0.2867
     19  CB         6.7220   24.0160   21.9540 C.3    42  TYR42       0.0534
     20  CG         8.0170   23.9480   21.1720 C.ar   42  TYR42      -0.0201
     21  CD1        9.1820   23.4090   21.7310 C.ar   42  TYR42      -0.0009
     22  CD2        8.0840   24.4330   19.8600 C.ar   42  TYR42      -0.0009
     23  CE1       10.3710   23.3460   21.0170 C.ar   42  TYR42       0.0417
     24  CE2        9.2640   24.3600   19.1230 C.ar   42  TYR42       0.0417
     25  CZ        10.4100   23.8210   19.7040 C.ar   42  TYR42       0.1957
     26  OH        11.5710   23.7860   18.9740 O.3    42  TYR42      -0.2866
     27  N          2.1810   19.7660   17.9140 N.3    72  ALA72      -0.1231
     28  CA         1.2470   20.8890   18.0900 C.3    72  ALA72       0.1694
     29  C          1.8520   22.1460   17.4760 C.2    72  ALA72       0.2592
     30  O          3.0610   22.2260   17.2170 O.2    72  ALA72      -0.2718
     31  CB         0.9140   21.0740   19.5670 C.3    72  ALA72       0.0304
     32  N          0.9450   23.0810   17.2630 N.am   73  ARG73      -0.1966
     33  CA         1.2940   24.4100   16.7220 C.3    73  ARG73       0.1729
     34  C          0.9510   25.3120   17.9180 C.2    73  ARG73       0.2616
     35  O         -0.2370   25.5930   18.1180 O.2    73  ARG73      -0.2715
     36  CB         0.5790   24.7730   15.4380 C.3    73  ARG73       0.0348
     37  CG         0.8330   23.8680   14.2390 C.3    73  ARG73       0.0492
     38  CD         0.5540   24.5610   12.9490 C.3    73  ARG73       0.2205
     39  NE         0.6660   23.7330   11.7800 N.pl3  73  ARG73      -0.0865
     40  CZ         1.6370   23.4120   10.9290 C.cat  73  ARG73       0.5346
     41  NH1        2.8840   23.8850   11.0170 N.pl3  73  ARG73       0.1354
     42  NH2        1.3770   22.5650    9.9170 N.pl3  73  ARG73       0.1354
     43  N          1.9690   25.6480   18.6760 N.am   74  PHE74      -0.1960
     44  CA         1.8800   26.4950   19.8890 C.3    74  PHE74       0.1756
     45  C          2.6510   27.7990   19.6270 C.2    74  PHE74       0.2461
     46  O          3.8120   27.9300   20.0460 O.2    74  PHE74      -0.2730
     47  CB         2.4070   25.7300   21.0800 C.3    74  PHE74       0.0574
     48  CG         2.4200   26.2840   22.4630 C.ar   74  PHE74      -0.0200
     49  CD1        1.2340   26.7240   23.0620 C.ar   74  PHE74      -0.0042
     50  CD2        3.6080   26.3310   23.1850 C.ar   74  PHE74      -0.0042
     51  CE1        1.2380   27.2080   24.3640 C.ar   74  PHE74      -0.0003
     52  CE2        3.6350   26.8240   24.4930 C.ar   74  PHE74      -0.0003
     53  CZ         2.4370   27.2630   25.0920 C.ar   74  PHE74      -0.0000
     54  N          1.9700   28.7170   18.9480 N.am   75  PRO75      -0.2727
     55  CA         2.5080   30.0200   18.5740 C.3    75  PRO75       0.1402
     56  C          3.0500   30.8590   19.7220 C.2    75  PRO75       0.2269
     57  O          3.9760   31.6740   19.5330 O.2    75  PRO75      -0.2865
     58  CB         1.3270   30.7440   17.9020 C.3    75  PRO75       0.0296
     59  CG         0.4720   29.6240   17.3700 C.3    75  PRO75       0.0237
     60  CD         0.5830   28.5630   18.4550 C.3    75  PRO75       0.0939
     61  N          4.8470   30.0420   21.9850 N.3    77  PHE77      -0.1227
     62  CA         6.2470   29.7020   22.2850 C.3    77  PHE77       0.1736
     63  C          7.1540   30.8800   21.9120 C.2    77  PHE77       0.2595
     64  O          8.3390   30.8870   22.2800 O.2    77  PHE77      -0.2718
     65  CB         6.7040   28.4030   21.6330 C.3    77  PHE77       0.0547
     66  CG         7.8820   27.7620   22.3110 C.ar   77  PHE77      -0.0202
     67  CD1        7.7370   27.2310   23.5990 C.ar   77  PHE77      -0.0042
     68  CD2        9.1200   27.6950   21.6780 C.ar   77  PHE77      -0.0042
     69  CE1        8.7980   26.6340   24.2570 C.ar   77  PHE77      -0.0003
     70  CE2       10.2080   27.0900   22.3200 C.ar   77  PHE77      -0.0003
     71  CZ        10.0420   26.5590   23.6150 C.ar   77  PHE77      -0.0000
     72  N          6.5790   31.8300   21.1830 N.am   78  ARG78      -0.1980
     73  CA         7.3130   33.0190   20.7420 C.3    78  ARG78       0.1597
     74  C          7.6630   33.8980   21.9410 C.2    78  ARG78       0.2287
     75  O          8.6730   34.6180   21.8820 O.2    78  ARG78      -0.2864
     76  CB         6.5640   33.8180   19.6800 C.3    78  ARG78       0.0334
     77  CG         7.1940   33.7770   18.2870 C.3    78  ARG78       0.0492
     78  CD         6.2680   34.3300   17.2600 C.3    78  ARG78       0.2205
     79  NE         6.7140   34.1370   15.8950 N.pl3  78  ARG78      -0.0865
     80  CZ         7.5650   34.8680   15.1740 C.cat  78  ARG78       0.5346
     81  NH1        8.1960   35.9590   15.6180 N.pl3  78  ARG78       0.1354
     82  NH2        7.7830   34.4710   13.9120 N.pl3  78  ARG78       0.1354
     83  N          8.8450   30.2580   27.3300 N.3    83  ARG83      -0.1245
     84  CA        10.0660   29.4580   27.1390 C.3    83  ARG83       0.1563
     85  C         10.7980   29.3460   28.4690 C.2    83  ARG83       0.2260
     86  O         11.5040   28.3490   28.7000 O.2    83  ARG83      -0.2867
     87  CB        11.0120   29.9770   26.0500 C.3    83  ARG83       0.0307
     88  CG        10.2950   30.2850   24.7390 C.3    83  ARG83       0.0489
     89  CD        11.1950   30.3890   23.5680 C.3    83  ARG83       0.2205
     90  NE        12.0750   31.5450   23.5630 N.pl3  83  ARG83      -0.0865
     91  CZ        11.7630   32.7930   23.2270 C.cat  83  ARG83       0.5346
     92  NH1       10.5740   33.1640   22.7910 N.pl3  83  ARG83       0.1354
     93  NH2       12.7110   33.7130   23.4000 N.pl3  83  ARG83       0.1354
     94  N          9.8020   21.2150   11.5750 N.3   103  GLY103     -0.1210
     95  CA        10.1140   22.0530   10.4170 C.3   103  GLY103      0.1956
     96  C         10.8790   23.3300   10.7220 C.2   103  GLY103      0.2612
     97  O         11.5470   23.5200   11.7520 O.2   103  GLY103     -0.2717
     98  N         10.7790   24.2300    9.7560 N.am  104  ASP104     -0.1959
     99  CA        11.4140   25.5520    9.7760 C.3   104  ASP104      0.1840
    100  C         11.0250   26.3160   11.0490 C.2   104  ASP104      0.2623
    101  O         11.8940   26.9610   11.6770 O.2   104  ASP104     -0.2715
    102  CB        11.1780   26.2980    8.4680 C.3   104  ASP104      0.1450
    103  CG         9.7430   26.4730    8.0270 C.2   104  ASP104      0.3671
    104  OD1        9.3610   27.5570    7.5450 O.co2 104  ASP104     -0.2456
    105  OD2        8.9450   25.5060    8.1490 O.co2 104  ASP104     -0.2456
    106  N          9.7550   26.2450   11.4030 N.am  105  GLY105     -0.1940
    107  CA         9.2090   26.9100   12.6020 C.3   105  GLY105      0.2014
    108  C          9.8040   26.3290   13.8830 C.2   105  GLY105      0.2639
    109  O         10.2620   27.0510   14.7830 O.2   105  GLY105     -0.2714
    110  N          9.8100   25.0100   13.9690 N.am  106  SER106     -0.1949
    111  CA        10.3610   24.2840   15.1250 C.3   106  SER106      0.1924
    112  C         11.8410   24.6130   15.2750 C.2   106  SER106      0.2314
    113  O         12.3410   24.6570   16.4140 O.2   106  SER106     -0.2863
    114  CB        10.0580   22.8080   14.9710 C.3   106  SER106      0.2116
    115  OG         8.6550   22.6520   14.7710 O.3   106  SER106     -0.2180
    116  N         13.1860   27.4290   14.7560 N.3   108  MET108     -0.1230
    117  CA        13.2520   28.7490   15.4080 C.3   108  MET108      0.1702
    118  C         13.1480   28.5450   16.9280 C.2   108  MET108      0.2592
    119  O         13.9680   29.1400   17.6540 O.2   108  MET108     -0.2718
    120  CB        12.2420   29.7380   14.8610 C.3   108  MET108      0.0401
    121  CG        12.5050   30.0780   13.4140 C.3   108  MET108      0.0596
    122  SD        13.2910   31.7150   13.2540 S.3   108  MET108     -0.1393
    123  CE        14.6220   31.6320   14.4480 C.3   108  MET108      0.0692
    124  N         12.2090   27.7230   17.3650 N.am  109  GLY109     -0.1957
    125  CA        12.0300   27.4420   18.7920 C.3   109  GLY109      0.1869
    126  C         13.3170   26.9020   19.4200 C.2   109  GLY109      0.2309
    127  O         13.7650   27.3580   20.4910 O.2   109  GLY109     -0.2863
    128  N         15.9030   29.5520   19.7590 N.3   112  ARG112     -0.1245
    129  CA        15.5790   30.4280   20.8960 C.3   112  ARG112      0.1563
    130  C         15.9560   29.7870   22.2340 C.2   112  ARG112      0.2260
    131  O         16.4270   30.5150   23.1240 O.2   112  ARG112     -0.2867
    132  CB        14.1180   30.8600   20.9300 C.3   112  ARG112      0.0307
    133  CG        13.6890   31.8130   19.8300 C.3   112  ARG112      0.0489
    134  CD        14.5020   33.0610   19.8370 C.3   112  ARG112      0.2205
    135  NE        13.9630   34.0510   18.9210 N.pl3 112  ARG112     -0.0865
    136  CZ        14.7150   34.8230   18.1350 C.cat 112  ARG112      0.5346
    137  NH1       16.0380   34.7340   18.1300 N.pl3 112  ARG112      0.1354
    138  NH2       14.0980   35.6940   17.3390 N.pl3 112  ARG112      0.1354
    139  N         12.0340   17.4030   10.0080 N.3   125  GLY125     -0.1210
    140  CA        10.7940   16.6370    9.8660 C.3   125  GLY125      0.1956
    141  C          9.6650   17.4760    9.2980 C.2   125  GLY125      0.2612
    142  O          9.0130   18.1870   10.0740 O.2   125  GLY125     -0.2717
    143  N          9.4450   17.3610    7.9930 N.am  126  THR126     -0.1952
    144  CA         8.3730   18.0860    7.3020 C.3   126  THR126      0.1897
    145  C          8.1910   17.5920    5.8750 C.2   126  THR126      0.2313
    146  O          9.2080   17.3890    5.1760 O.2   126  THR126     -0.2863
    147  CB         8.7120   19.6310    7.2430 C.3   126  THR126      0.1794
    148  OG1        7.5530   20.2520    6.5850 O.3   126  THR126     -0.2208
    149  CG2       10.0110   19.9390    6.4890 C.3   126  THR126      0.0378
    150  N          3.3480   24.6930    0.5840 N.3   172  ARG172     -0.1245
    151  CA         3.2870   26.0350    1.2010 C.3   172  ARG172      0.1563
    152  C          3.9710   27.0550    0.2960 C.2   172  ARG172      0.2260
    153  O          3.3470   27.5800   -0.6450 O.2   172  ARG172     -0.2867
    154  CB         3.8590   25.9490    2.6090 C.3   172  ARG172      0.0307
    155  CG         3.6770   27.1110    3.5590 C.3   172  ARG172      0.0489
    156  CD         3.9620   26.6960    4.9750 C.3   172  ARG172      0.2205
    157  NE         3.0090   27.3470    5.8540 N.pl3 172  ARG172     -0.0865
    158  CZ         2.5210   26.8880    7.0040 C.cat 172  ARG172      0.5346
    159  NH1        2.8740   25.7060    7.4990 N.pl3 172  ARG172      0.1354
    160  NH2        1.6520   27.6690    7.6680 N.pl3 172  ARG172      0.1354
@<TRIPOS>BOND
     1   153   152    2
     2   152   151    1
     3   150   151    1
     4   151   154    1
     5   154   155    1
     6   155   156    1
     7   156   157    1
     8   146   145    2
     9   157   158    2
    10   145   144    1
    11   149   147    1
    12   148   147    1
    13   158   159    1
    14   158   160    1
    15   147   144    1
    16   144   143    1
    17   104   103   ar
    18   143   141   am
    19   103   105   ar
    20   103   102    1
    21   102    99    1
    22   141   140    1
    23   141   142    2
    24    98    99    1
    25    98    96   am
    26    99   100    1
    27   140   139    1
    28    42    40    1
    29    95    96    1
    30    95    94    1
    31    14    13    2
    32    96    97    2
    33    12    13    1
    34    12    11    1
    35    40    41    1
    36    40    39    2
    37   100   106   am
    38   100   101    2
    39   106   107    1
    40    11     9   am
    41    39    38    1
    42   107   108    1
    43    38    37    1
    44     9    10    2
    45     9     8    1
    46   122   121    1
    47   122   123    1
    48   121   120    1
    49     8     7    1
    50   108   110   am
    51   108   109    2
    52    82    80    1
    53   110   111    1
    54     4     3    2
    55    37    36    1
    56   116   117    1
    57   115   114    1
    58   120   117    1
    59   114   111    1
    60     7     3   am
    61   111   112    1
    62     3     2    1
    63    80    81    1
    64    80    79    2
    65   112   113    2
    66   117   118    1
    67    36    33    1
    68    79    78    1
    69     2     1    1
    70     2     5    1
    71    33    32    1
    72    33    34    1
    73   118   124   am
    74   118   119    2
    75     6     5    1
    76    30    29    2
    77    78    77    1
    78    32    29   am
    79   138   136    1
    80   124   125    1
    81    59    58    1
    82    59    60    1
    83    29    28    1
    84    58    55    1
    85    27    28    1
    86    34    35    2
    87    34    43   am
    88    28    31    1
    89   137   136    1
    90   136   135    2
    91    77    76    1
    92    60    54    1
    93    55    54    1
    94    55    56    1
    95    43    44    1
    96   125   126    1
    97   135   134    1
    98    54    45   am
    99    26    25    1
   100    24    25   ar
   101    24    22   ar
   102   126   127    2
   103    57    56    2
   104    45    44    1
   105    45    46    2
   106    76    73    1
   107    25    23   ar
   108   128   129    1
   109   133   134    1
   110   133   132    1
   111    22    20   ar
   112    44    47    1
   113    73    72    1
   114    73    74    1
   115   129   132    1
   116   129   130    1
   117    23    21   ar
   118    47    48    1
   119    20    21   ar
   120    20    19    1
   121    72    63   am
   122    65    62    1
   123    65    66    1
   124    15    16    1
   125    68    66   ar
   126    68    70   ar
   127    75    74    2
   128    63    64    2
   129    63    62    1
   130    19    16    1
   131    61    62    1
   132   130   131    2
   133    66    67   ar
   134    70    71   ar
   135    48    49   ar
   136    48    50   ar
   137    16    17    1
   138    92    91    1
   139    49    51   ar
   140    50    52   ar
   141    91    93    1
   142    91    90    2
   143    90    89    1
   144    89    88    1
   145    67    69   ar
   146    17    18    2
   147    71    69   ar
   148    51    53   ar
   149    52    53   ar
   150    88    87    1
   151    87    84    1
   152    84    83    1
   153    84    85    1
   154    85    86    2
