@<TRIPOS>MOLECULE
tmp/1pfkA02.pdb
 91 87 0 0 0
SMALL
GASTEIGER

@<TRIPOS>ATOM
      1  N         -4.5020   10.2310  -14.5510 N.3   155  ARG155     -0.1245
      2  CA        -4.1440   10.0160  -15.9700 C.3   155  ARG155      0.1563
      3  C         -5.1670    9.0440  -16.5750 C.2   155  ARG155      0.2260
      4  O         -5.6390    9.2640  -17.7180 O.2   155  ARG155     -0.2867
      5  CB        -2.7310    9.4870  -16.1490 C.3   155  ARG155      0.0307
      6  CG        -1.6240   10.4860  -15.8400 C.3   155  ARG155      0.0489
      7  CD        -0.3030    9.7840  -15.7330 C.3   155  ARG155      0.2205
      8  NE        -0.1010    9.0790  -16.9860 N.pl3 155  ARG155     -0.0865
      9  CZ         0.7440    9.4370  -17.9630 C.cat 155  ARG155      0.5346
     10  NH1        1.5850   10.4600  -17.8430 N.pl3 155  ARG155      0.1354
     11  NH2        0.6730    8.7480  -19.1160 N.pl3 155  ARG155      0.1354
     12  N         -7.7690   10.4570  -19.3810 N.3   159  SER159     -0.1217
     13  CA        -7.5400    9.8870  -20.7170 C.3   159  SER159      0.1889
     14  C         -8.8380    9.3640  -21.3530 C.2   159  SER159      0.2288
     15  O         -9.0500    9.6210  -22.5470 O.2   159  SER159     -0.2866
     16  CB        -6.5660    8.7160  -20.7670 C.3   159  SER159      0.2089
     17  OG        -5.2610    9.2760  -20.8210 O.3   159  SER159     -0.2183
     18  N          4.8140   12.7720  -15.4280 N.3   186  GLY186     -0.1225
     19  CA         4.8650   13.1680  -16.8400 C.3   186  GLY186      0.1811
     20  C          3.8220   14.2410  -17.1650 C.2   186  GLY186      0.2280
     21  O          3.0960   14.1740  -18.1630 O.2   186  GLY186     -0.2866
     22  N          2.0610   17.8440  -18.1160 N.3   188  GLU188     -0.1245
     23  CA         2.0640   18.7560  -19.2560 C.3   188  GLU188      0.1567
     24  C          2.5800   20.1550  -18.9730 C.2   188  GLU188      0.2260
     25  O          3.1940   20.7970  -19.8410 O.2   188  GLU188     -0.2867
     26  CB         0.6640   18.9200  -19.8680 C.3   188  GLU188      0.0388
     27  CG         0.2820   17.7780  -20.8190 C.3   188  GLU188      0.1160
     28  CD         0.6510   16.3880  -20.3470 C.2   188  GLU188      0.3649
     29  OE1        1.5560   15.7340  -20.8220 O.co2 188  GLU188     -0.2457
     30  OE2       -0.0880   16.0360  -19.3970 O.co2 188  GLU188     -0.2457
     31  N         -0.7040   18.1390  -31.2450 N.3   212  LYS212     -0.1231
     32  CA         0.1040   16.9250  -31.3390 C.3   212  LYS212      0.1693
     33  C         -0.6860   15.6530  -31.0270 C.2   212  LYS212      0.2593
     34  O         -0.1000   14.5560  -31.0890 O.2   212  LYS212     -0.2718
     35  CB         1.3360   16.9540  -30.4410 C.3   212  LYS212      0.0285
     36  CG         2.3520   18.0750  -30.6780 C.3   212  LYS212      0.0035
     37  CD         3.6420   17.7990  -29.9210 C.3   212  LYS212      0.0206
     38  CE         4.6120   18.9460  -29.7630 C.3   212  LYS212      0.1093
     39  NZ         4.1350   19.9460  -28.7640 N.3   212  LYS212     -0.1314
     40  N         -1.9590   15.7700  -30.7100 N.am  213  GLY213     -0.1942
     41  CA        -2.8550   14.6810  -30.4030 C.3   213  GLY213      0.2014
     42  C         -2.9250   14.1000  -29.0020 C.2   213  GLY213      0.2639
     43  O         -3.3730   12.9320  -28.8640 O.2   213  GLY213     -0.2714
     44  N         -2.5440   14.8440  -27.9740 N.am  214  LYS214     -0.1963
     45  CA        -2.5900   14.3660  -26.5880 C.3   214  LYS214      0.1728
     46  C         -4.0470   14.1800  -26.1780 C.2   214  LYS214      0.2616
     47  O         -4.8400   15.1170  -26.4170 O.2   214  LYS214     -0.2715
     48  CB        -1.9010   15.2790  -25.5890 C.3   214  LYS214      0.0311
     49  CG        -0.3760   15.1450  -25.6290 C.3   214  LYS214      0.0038
     50  CD         0.2960   15.9200  -24.5080 C.3   214  LYS214      0.0206
     51  CE         1.8030   15.8750  -24.6620 C.3   214  LYS214      0.1093
     52  NZ         2.4630   16.7080  -23.6200 N.3   214  LYS214     -0.1314
     53  N         -4.3270   13.0220  -25.6010 N.am  215  LYS215     -0.1963
     54  CA        -5.6890   12.7000  -25.1430 C.3   215  LYS215      0.1728
     55  C         -6.0030   13.3840  -23.8100 C.2   215  LYS215      0.2616
     56  O         -7.1760   13.7510  -23.6030 O.2   215  LYS215     -0.2715
     57  CB        -5.9900   11.2010  -25.0510 C.3   215  LYS215      0.0311
     58  CG        -6.4460   10.6170  -26.3910 C.3   215  LYS215      0.0038
     59  CD        -6.4510    9.0970  -26.3400 C.3   215  LYS215      0.0206
     60  CE        -7.7980    8.5340  -26.7660 C.3   215  LYS215      0.1093
     61  NZ        -8.8480    8.7700  -25.7370 N.3   215  LYS215     -0.1314
     62  N         -5.0180   13.5530  -22.9480 N.am  216  HIS216     -0.1973
     63  CA        -5.2020   14.2170  -21.6500 C.3   216  HIS216      0.1656
     64  C         -4.1280   15.3000  -21.4770 C.2   216  HIS216      0.2291
     65  O         -3.1950   15.4810  -22.2790 O.2   216  HIS216     -0.2864
     66  CB        -5.1460   13.3150  -20.3940 C.3   216  HIS216      0.0771
     67  CG        -3.8680   12.6270  -20.0210 C.ar  216  HIS216      0.0820
     68  ND1       -3.8010   11.2850  -19.7130 N.ar  216  HIS216     -0.2267
     69  CD2       -2.5880   13.0780  -19.9120 C.ar  216  HIS216      0.1154
     70  CE1       -2.5450   10.9630  -19.4270 C.ar  216  HIS216      0.1986
     71  NE2       -1.7860   12.0210  -19.5580 N.ar  216  HIS216     -0.2212
     72  N         10.9620   16.8890  -21.6890 N.3   319  LEU319     -0.1231
     73  CA        10.2120   15.6350  -21.7230 C.3   319  LEU319      0.1693
     74  C          8.7210   15.7400  -21.9500 C.2   319  LEU319      0.2592
     75  O          8.1130   14.6620  -22.1030 O.2   319  LEU319     -0.2718
     76  CB        10.5980   14.9070  -20.4110 C.3   319  LEU319      0.0284
     77  CG        12.0720   14.8770  -20.0370 C.3   319  LEU319      0.0019
     78  CD1       12.2660   14.0700  -18.7560 C.3   319  LEU319      0.0001
     79  CD2       12.9110   14.2540  -21.1490 C.3   319  LEU319      0.0001
     80  N          8.1980   16.9480  -21.9620 N.am  320  TYR320     -0.1976
     81  CA         6.7680   17.2030  -22.1580 C.3   320  TYR320      0.1639
     82  C          6.1880   16.4180  -23.3360 C.2   320  TYR320      0.2290
     83  O          5.0600   15.9130  -23.1390 O.2   320  TYR320     -0.2864
     84  CB         6.4240   18.6840  -22.3810 C.3   320  TYR320      0.0560
     85  CG         6.4150   19.6010  -21.1930 C.ar  320  TYR320     -0.0198
     86  CD1        6.3090   19.1510  -19.8720 C.ar  320  TYR320     -0.0009
     87  CD2        6.5020   20.9880  -21.4010 C.ar  320  TYR320     -0.0009
     88  CE1        6.3050   20.0400  -18.7980 C.ar  320  TYR320      0.0417
     89  CE2        6.4930   21.8950  -20.3430 C.ar  320  TYR320      0.0417
     90  CZ         6.3980   21.4120  -19.0390 C.ar  320  TYR320      0.1957
     91  OH         6.3870   22.3190  -18.0140 O.3   320  TYR320     -0.2866
@<TRIPOS>BOND
     1    32    31    1
     2    32    33    1
     3    32    35    1
     4    34    33    2
     5    33    40   am
     6    40    41    1
     7    36    35    1
     8    36    37    1
     9    41    42    1
    10    37    38    1
    11    38    39    1
    12    42    43    2
    13    42    44   am
    14    44    45    1
    15    60    59    1
    16    60    61    1
    17    45    46    1
    18    45    48    1
    19    47    46    2
    20    58    59    1
    21    58    57    1
    22    46    53   am
    23    49    48    1
    24    49    50    1
    25    53    54    1
    26    54    57    1
    27    54    55    1
    28    51    50    1
    29    51    52    1
    30    55    56    2
    31    55    62   am
    32    82    83    2
    33    82    81    1
    34    62    63    1
    35    15    14    2
    36    84    81    1
    37    84    85    1
    38    65    64    2
    39    81    80    1
    40    75    74    2
    41    80    74   am
    42    74    73    1
    43    73    72    1
    44    73    76    1
    45    63    64    1
    46    63    66    1
    47    87    85   ar
    48    87    89   ar
    49    14    13    1
    50    85    86   ar
    51    79    77    1
    52    29    28   ar
    53    17    16    1
    54    27    28    1
    55    27    26    1
    56    16    13    1
    57    13    12    1
    58    76    77    1
    59    66    67    1
    60    28    30   ar
    61    89    90   ar
    62    77    78    1
    63    67    69   ar
    64    67    68   ar
    65    69    71   ar
    66    86    88   ar
    67    26    23    1
    68    25    24    2
    69    68    70   ar
    70    71    70   ar
    71    23    24    1
    72    23    22    1
    73    11     9    1
    74    90    88   ar
    75    90    91    1
    76    21    20    2
    77     9    10    1
    78     9     8    2
    79     4     3    2
    80    20    19    1
    81     8     7    1
    82    19    18    1
    83     3     2    1
    84     5     2    1
    85     5     6    1
    86     2     1    1
    87     6     7    1
