@<TRIPOS>MOLECULE
tmp/1pfuA00.pdb
 106 106 0 0 0
SMALL
GASTEIGER

@<TRIPOS>ATOM
      1  N          8.7690    9.2230   24.7410 N.3     9  ALA9       -0.1231
      2  CA         9.5860    9.3550   23.5350 C.3     9  ALA9        0.1694
      3  C         10.3450    8.0490   23.3070 C.2     9  ALA9        0.2592
      4  O         10.7240    7.3680   24.2620 O.2     9  ALA9       -0.2718
      5  CB        10.5680   10.5040   23.6760 C.3     9  ALA9        0.0304
      6  N         10.5690    7.7120   22.0430 N.am   10  LEU10      -0.1966
      7  CA        11.2540    6.4740   21.6850 C.3    10  LEU10       0.1713
      8  C         12.7700    6.6340   21.8390 C.2    10  LEU10       0.2458
      9  O         13.3840    7.4670   21.1780 O.2    10  LEU10      -0.2730
     10  CB        10.8980    6.1000   20.2400 C.3    10  LEU10       0.0310
     11  CG         9.4110    6.2200   19.8760 C.3    10  LEU10       0.0022
     12  CD1        9.1910    5.6870   18.4600 C.3    10  LEU10       0.0001
     13  CD2        8.5520    5.4490   20.8800 C.3    10  LEU10       0.0001
     14  N         13.3890    5.8420   22.7330 N.am   11  PRO11      -0.2716
     15  CA        14.8380    5.9250   22.9540 C.3    11  PRO11       0.1536
     16  C         15.6480    5.5120   21.7250 C.2    11  PRO11       0.2598
     17  O         15.3080    4.5330   21.0600 O.2    11  PRO11      -0.2715
     18  CB        15.0630    4.9720   24.1260 C.3    11  PRO11       0.0310
     19  CG        13.7280    4.9660   24.8410 C.3    11  PRO11       0.0237
     20  CD        12.7690    4.9090   23.6900 C.3    11  PRO11       0.0939
     21  N         16.7170    6.2480   21.4270 N.am   12  TYR12      -0.1974
     22  CA        17.5520    5.9110   20.2800 C.3    12  TYR12       0.1639
     23  C         18.2680    4.5910   20.5740 C.2    12  TYR12       0.2290
     24  O         18.7360    4.3620   21.6870 O.2    12  TYR12      -0.2864
     25  CB        18.5770    7.0110   20.0000 C.3    12  TYR12       0.0560
     26  CG        18.9160    7.1280   18.5270 C.ar   12  TYR12      -0.0198
     27  CD1       20.2420    7.1680   18.0940 C.ar   12  TYR12      -0.0009
     28  CD2       17.9060    7.1930   17.5630 C.ar   12  TYR12      -0.0009
     29  CE1       20.5600    7.2680   16.7340 C.ar   12  TYR12       0.0417
     30  CE2       18.2110    7.2930   16.1990 C.ar   12  TYR12       0.0417
     31  CZ        19.5400    7.3300   15.7930 C.ar   12  TYR12       0.1957
     32  OH        19.8520    7.4240   14.4510 O.3    12  TYR12      -0.2866
     33  N         16.5810    9.6180   30.7470 N.3    21  HIS21      -0.1241
     34  CA        15.4760    8.8320   30.1950 C.3    21  HIS21       0.1621
     35  C         14.5210    8.4390   31.3180 C.2    21  HIS21       0.2264
     36  O         13.3020    8.5780   31.1920 O.2    21  HIS21      -0.2867
     37  CB        15.9640    7.5230   29.5600 C.3    21  HIS21       0.0745
     38  CG        16.7820    7.6860   28.3160 C.ar   21  HIS21       0.0817
     39  ND1       18.1560    7.5750   28.3110 N.ar   21  HIS21      -0.2268
     40  CD2       16.4150    7.8630   27.0230 C.ar   21  HIS21       0.1154
     41  CE1       18.5990    7.6720   27.0690 C.ar   21  HIS21       0.1986
     42  NE2       17.5620    7.8470   26.2690 N.ar   21  HIS21      -0.2212
     43  N         13.8330    3.7650   18.8230 N.3    49  ASP49      -0.1239
     44  CA        13.9680    4.5710   17.5970 C.3    49  ASP49       0.1674
     45  C         15.2130    3.9260   16.9740 C.2    49  ASP49       0.2266
     46  O         16.3390    4.2070   17.3930 O.2    49  ASP49      -0.2867
     47  CB        14.2490    6.0370   17.9740 C.3    49  ASP49       0.1410
     48  CG        14.1190    6.9930   16.7960 C.2    49  ASP49       0.3668
     49  OD1       14.1090    6.5250   15.6380 O.co2  49  ASP49      -0.2456
     50  OD2       14.0390    8.2230   17.0290 O.co2  49  ASP49      -0.2456
     51  N         13.4130   11.1340   11.4940 N.3   250  TRP250     -0.1241
     52  CA        12.3800   11.8670   12.2210 C.3   250  TRP250      0.1605
     53  C         10.9960   11.8470   11.5790 C.2   250  TRP250      0.2264
     54  O         10.0080   12.2430   12.2020 O.2   250  TRP250     -0.2867
     55  CB        12.8280   13.3080   12.4900 C.3   250  TRP250      0.0550
     56  CG        13.5030   13.4640   13.8330 C.ar  250  TRP250      0.0003
     57  CD1       14.8170   13.7540   14.0660 C.ar  250  TRP250      0.0946
     58  CD2       12.8860   13.3360   15.1240 C.ar  250  TRP250      0.0152
     59  NE1       15.0560   13.8180   15.4220 N.ar  250  TRP250     -0.2442
     60  CE2       13.8870   13.5680   16.0920 C.ar  250  TRP250      0.0810
     61  CE3       11.5810   13.0530   15.5550 C.ar  250  TRP250      0.0012
     62  CZ2       13.6260   13.5210   17.4700 C.ar  250  TRP250      0.0191
     63  CZ3       11.3210   13.0070   16.9250 C.ar  250  TRP250      0.0001
     64  CH2       12.3420   13.2430   17.8640 C.ar  250  TRP250      0.0015
     65  N          9.9530    8.1200   12.9270 N.3   253  ALA253     -0.1231
     66  CA        10.0300    7.9360   14.3790 C.3   253  ALA253      0.1679
     67  C          8.6780    8.0770   15.0910 C.2   253  ALA253      0.2434
     68  O          8.2450    7.1580   15.7960 O.2   253  ALA253     -0.2733
     69  CB        11.0520    8.9150   14.9800 C.3   253  ALA253      0.0304
     70  N          7.9980    9.2340   14.9350 N.am  254  PRO254     -0.2729
     71  CA         6.6980    9.4000   15.5990 C.3   254  PRO254      0.1401
     72  C          5.6480    8.4290   15.0680 C.2   254  PRO254      0.2269
     73  O          4.7540    8.0070   15.7990 O.2   254  PRO254     -0.2865
     74  CB         6.3480   10.8650   15.3250 C.3   254  PRO254      0.0296
     75  CG         7.0480   11.1450   14.0210 C.3   254  PRO254      0.0237
     76  CD         8.3820   10.4630   14.2180 C.3   254  PRO254      0.0939
     77  N          4.8630    5.5060   17.0640 N.3   257  TYR257     -0.1241
     78  CA         3.8900    5.5050   18.1580 C.3   257  TYR257      0.1605
     79  C          2.6830    4.7170   17.6420 C.2   257  TYR257      0.2264
     80  O          2.0940    3.9000   18.3570 O.2   257  TYR257     -0.2867
     81  CB         3.4190    6.9340   18.4920 C.3   257  TYR257      0.0534
     82  CG         4.4300    7.8470   19.1660 C.ar  257  TYR257     -0.0201
     83  CD1        4.4970    9.1990   18.8220 C.ar  257  TYR257     -0.0009
     84  CD2        5.2650    7.3850   20.1900 C.ar  257  TYR257     -0.0009
     85  CE1        5.3620   10.0760   19.4740 C.ar  257  TYR257      0.0417
     86  CE2        6.1380    8.2600   20.8590 C.ar  257  TYR257      0.0417
     87  CZ         6.1740    9.6060   20.4910 C.ar  257  TYR257      0.1957
     88  OH         7.0040   10.4880   21.1370 O.3   257  TYR257     -0.2866
     89  N         12.5920   18.1380   22.1170 N.3   294  ILE294     -0.1245
     90  CA        11.8810   17.5850   20.9680 C.3   294  ILE294      0.1561
     91  C         10.4530   18.0860   20.8630 C.2   294  ILE294      0.2260
     92  O          9.5960   17.4190   20.2880 O.2   294  ILE294     -0.2867
     93  CB        11.8670   16.0400   21.0150 C.3   294  ILE294      0.0252
     94  CG1       11.2390   15.5550   22.3270 C.3   294  ILE294      0.0019
     95  CG2       13.2810   15.5100   20.8540 C.3   294  ILE294      0.0019
     96  CD1       11.2030   14.0350   22.4770 C.3   294  ILE294      0.0001
     97  N          7.1140   17.4210   17.9500 N.3   298  HIS298     -0.1241
     98  CA         5.8100   16.9890   18.4460 C.3   298  HIS298      0.1621
     99  C          4.6680   17.9890   18.4110 C.2   298  HIS298      0.2264
    100  O          3.5050   17.5930   18.3910 O.2   298  HIS298     -0.2867
    101  CB         5.9310   16.4640   19.8840 C.3   298  HIS298      0.0745
    102  CG         6.6370   15.1470   19.9930 C.ar  298  HIS298      0.0817
    103  ND1        8.0100   15.0320   19.9590 N.ar  298  HIS298     -0.2268
    104  CD2        6.1580   13.8870   20.1210 C.ar  298  HIS298      0.1154
    105  CE1        8.3460   13.7580   20.0620 C.ar  298  HIS298      0.1986
    106  NE2        7.2400   13.0420   20.1620 N.ar  298  HIS298     -0.2212
@<TRIPOS>BOND
     1    51    52    1
     2    53    54    2
     3    53    52    1
     4    52    55    1
     5    55    56    1
     6    65    66    1
     7    56    57   ar
     8    56    58   ar
     9    75    76    1
    10    75    74    1
    11    57    59   ar
    12    76    70    1
    13    66    69    1
    14    66    67    1
    15    32    31    1
    16    70    67   am
    17    70    71    1
    18    72    71    1
    19    72    73    2
    20    67    68    2
    21    58    61   ar
    22    58    60   ar
    23    74    71    1
    24    59    60   ar
    25    61    63   ar
    26    49    48   ar
    27    31    30   ar
    28    31    29   ar
    29    60    62   ar
    30    30    28   ar
    31    29    27   ar
    32    48    50   ar
    33    48    47    1
    34    63    64   ar
    35    45    46    2
    36    45    44    1
    37    77    78    1
    38    62    64   ar
    39    28    26   ar
    40    44    47    1
    41    44    43    1
    42    79    78    1
    43    79    80    2
    44    97    98    1
    45    27    26   ar
    46    78    81    1
    47   100    99    2
    48    99    98    1
    49    98   101    1
    50    12    11    1
    51    81    82    1
    52    26    25    1
    53    83    82   ar
    54    83    85   ar
    55    82    84   ar
    56    85    87   ar
    57    11    10    1
    58    11    13    1
    59   101   102    1
    60   103   102   ar
    61   103   105   ar
    62   102   104   ar
    63    25    22    1
    64   105   106   ar
    65   104   106   ar
    66    84    86   ar
    67    10     7    1
    68    22    23    1
    69    22    21    1
    70    92    91    2
    71    87    86   ar
    72    87    88    1
    73    23    24    2
    74    95    93    1
    75    91    90    1
    76    90    93    1
    77    90    89    1
    78    93    94    1
    79    17    16    2
    80     9     8    2
    81    21    16   am
    82     7     8    1
    83     7     6    1
    84    16    15    1
    85     8    14   am
    86     6     3   am
    87    94    96    1
    88    14    15    1
    89    14    20    1
    90    15    18    1
    91     3     2    1
    92     3     4    2
    93     2     5    1
    94     2     1    1
    95    20    19    1
    96    18    19    1
    97    42    40   ar
    98    42    41   ar
    99    40    38   ar
   100    41    39   ar
   101    39    38   ar
   102    38    37    1
   103    37    34    1
   104    34    33    1
   105    34    35    1
   106    36    35    2
