@<TRIPOS>MOLECULE
tmp/1pfwA00.pdb
 117 118 0 0 0
SMALL
GASTEIGER

@<TRIPOS>ATOM
      1  N          8.5730    9.3450   24.7230 N.3     9  ALA9       -0.1231
      2  CA         9.3550    9.4940   23.5010 C.3     9  ALA9        0.1694
      3  C         10.1170    8.1950   23.2510 C.2     9  ALA9        0.2592
      4  O         10.5320    7.5180   24.1940 O.2     9  ALA9       -0.2718
      5  CB        10.3260   10.6590   23.6340 C.3     9  ALA9        0.0304
      6  N         10.2860    7.8410   21.9820 N.am   10  LEU10      -0.1966
      7  CA        10.9820    6.6120   21.6160 C.3    10  LEU10       0.1713
      8  C         12.4930    6.7970   21.7600 C.2    10  LEU10       0.2458
      9  O         13.0960    7.6070   21.0660 O.2    10  LEU10      -0.2730
     10  CB        10.6270    6.2280   20.1750 C.3    10  LEU10       0.0310
     11  CG         9.1360    6.2660   19.8100 C.3    10  LEU10       0.0022
     12  CD1        8.9510    5.6280   18.4310 C.3    10  LEU10       0.0001
     13  CD2        8.3010    5.5230   20.8550 C.3    10  LEU10       0.0001
     14  N         13.1230    6.0420   22.6740 N.am   11  PRO11      -0.2716
     15  CA        14.5690    6.1350   22.9060 C.3    11  PRO11       0.1536
     16  C         15.4000    5.7260   21.6930 C.2    11  PRO11       0.2598
     17  O         15.0620    4.7640   21.0150 O.2    11  PRO11      -0.2715
     18  CB        14.7990    5.1750   24.0730 C.3    11  PRO11       0.0310
     19  CG        13.4590    5.0850   24.7460 C.3    11  PRO11       0.0237
     20  CD        12.5080    5.0650   23.5880 C.3    11  PRO11       0.0939
     21  N         16.4800    6.4570   21.4260 N.am   12  TYR12      -0.1974
     22  CA        17.3700    6.1210   20.3150 C.3    12  TYR12       0.1639
     23  C         17.9970    4.7680   20.6260 C.2    12  TYR12       0.2290
     24  O         18.4110    4.5160   21.7570 O.2    12  TYR12      -0.2864
     25  CB        18.4750    7.1700   20.1700 C.3    12  TYR12       0.0560
     26  CG        18.0720    8.3930   19.3790 C.ar   12  TYR12      -0.0198
     27  CD1       18.5030    9.6640   19.7580 C.ar   12  TYR12      -0.0009
     28  CD2       17.2740    8.2800   18.2400 C.ar   12  TYR12      -0.0009
     29  CE1       18.1480   10.7950   19.0210 C.ar   12  TYR12       0.0417
     30  CE2       16.9160    9.4020   17.4970 C.ar   12  TYR12       0.0417
     31  CZ        17.3560   10.6540   17.8940 C.ar   12  TYR12       0.1957
     32  OH        17.0030   11.7650   17.1620 O.3    12  TYR12      -0.2866
     33  N         16.3520    9.6900   30.7670 N.3    21  HIS21      -0.1241
     34  CA        15.2380    8.9360   30.2000 C.3    21  HIS21       0.1621
     35  C         14.2890    8.5510   31.3270 C.2    21  HIS21       0.2264
     36  O         13.0720    8.6900   31.2070 O.2    21  HIS21      -0.2867
     37  CB        15.6910    7.6160   29.5560 C.3    21  HIS21       0.0745
     38  CG        16.5650    7.7690   28.3510 C.ar   21  HIS21       0.0817
     39  ND1       17.9390    7.6680   28.4120 N.ar   21  HIS21      -0.2268
     40  CD2       16.2580    7.9390   27.0420 C.ar   21  HIS21       0.1154
     41  CE1       18.4400    7.7640   27.1920 C.ar   21  HIS21       0.1986
     42  NE2       17.4410    7.9280   26.3430 N.ar   21  HIS21      -0.2212
     43  N         13.6170    3.9470   18.8020 N.3    49  ASP49      -0.1239
     44  CA        13.7540    4.7450   17.5720 C.3    49  ASP49       0.1674
     45  C         15.0080    4.0970   16.9820 C.2    49  ASP49       0.2266
     46  O         16.1270    4.4110   17.3930 O.2    49  ASP49      -0.2867
     47  CB        14.0210    6.2020   17.9550 C.3    49  ASP49       0.1410
     48  CG        14.0180    7.1340   16.7690 C.2    49  ASP49       0.3668
     49  OD1       14.1820    6.6580   15.6260 O.co2  49  ASP49      -0.2456
     50  OD2       13.8680    8.3530   16.9890 O.co2  49  ASP49      -0.2456
     51  N         13.1060   11.1090   11.2860 N.3   250  TRP250     -0.1241
     52  CA        12.0700   11.8770   11.9620 C.3   250  TRP250      0.1605
     53  C         10.6940   11.8010   11.3070 C.2   250  TRP250      0.2264
     54  O          9.6990   12.2530   11.8740 O.2   250  TRP250     -0.2867
     55  CB        12.5170   13.3290   12.1530 C.3   250  TRP250      0.0550
     56  CG        13.5440   13.4570   13.2540 C.ar  250  TRP250      0.0003
     57  CD1       14.9060   13.4480   13.1170 C.ar  250  TRP250      0.0946
     58  CD2       13.2850   13.5380   14.6630 C.ar  250  TRP250      0.0152
     59  NE1       15.5080   13.5170   14.3530 N.ar  250  TRP250     -0.2442
     60  CE2       14.5370   13.5730   15.3190 C.ar  250  TRP250      0.0810
     61  CE3       12.1160   13.5830   15.4360 C.ar  250  TRP250      0.0012
     62  CZ2       14.6520   13.6500   16.7110 C.ar  250  TRP250      0.0191
     63  CZ3       12.2320   13.6590   16.8220 C.ar  250  TRP250      0.0001
     64  CH2       13.4920   13.6920   17.4430 C.ar  250  TRP250      0.0015
     65  N          9.8300    8.0710   12.7960 N.3   253  ALA253     -0.1231
     66  CA         9.9150    7.9650   14.2560 C.3   253  ALA253      0.1679
     67  C          8.5830    8.0960   15.0090 C.2   253  ALA253      0.2434
     68  O          8.1770    7.1700   15.7240 O.2   253  ALA253     -0.2733
     69  CB        10.9330    8.9810   14.7910 C.3   253  ALA253      0.0304
     70  N          7.8850    9.2440   14.8800 N.am  254  PRO254     -0.2729
     71  CA         6.6120    9.3590   15.6030 C.3   254  PRO254      0.1401
     72  C          5.5490    8.4040   15.0740 C.2   254  PRO254      0.2269
     73  O          4.6150    8.0430   15.7890 O.2   254  PRO254     -0.2865
     74  CB         6.2310   10.8240   15.4060 C.3   254  PRO254      0.0296
     75  CG         6.7670   11.1220   14.0510 C.3   254  PRO254      0.0237
     76  CD         8.1430   10.4550   14.0830 C.3   254  PRO254      0.0939
     77  N          4.7650    5.5070   17.1400 N.3   257  TYR257     -0.1241
     78  CA         3.7710    5.5170   18.2170 C.3   257  TYR257      0.1605
     79  C          2.5780    4.7180   17.7020 C.2   257  TYR257      0.2264
     80  O          2.0010    3.8920   18.4120 O.2   257  TYR257     -0.2867
     81  CB         3.2820    6.9370   18.5120 C.3   257  TYR257      0.0534
     82  CG         4.2710    7.8600   19.1860 C.ar  257  TYR257     -0.0201
     83  CD1        4.3550    9.1940   18.8040 C.ar  257  TYR257     -0.0009
     84  CD2        5.0730    7.4220   20.2440 C.ar  257  TYR257     -0.0009
     85  CE1        5.2040   10.0810   19.4520 C.ar  257  TYR257      0.0417
     86  CE2        5.9340    8.3060   20.9070 C.ar  257  TYR257      0.0417
     87  CZ         5.9880    9.6350   20.5020 C.ar  257  TYR257      0.1957
     88  OH         6.8140   10.5320   21.1410 O.3   257  TYR257     -0.2866
     89  N         12.3820   18.1300   22.1900 N.3   294  ILE294     -0.1245
     90  CA        11.5900   17.6310   21.0680 C.3   294  ILE294      0.1561
     91  C         10.1750   18.1890   21.0080 C.2   294  ILE294      0.2260
     92  O          9.2840   17.5840   20.4070 O.2   294  ILE294     -0.2867
     93  CB        11.5250   16.0910   21.0820 C.3   294  ILE294      0.0252
     94  CG1       10.9830   15.6000   22.4260 C.3   294  ILE294      0.0019
     95  CG2       12.9140   15.5210   20.8210 C.3   294  ILE294      0.0019
     96  CD1       10.9100   14.0800   22.5400 C.3   294  ILE294      0.0001
     97  N          9.1340   19.5230   17.3990 N.3   297  PHE297     -0.1227
     98  CA         8.7320   18.3790   16.5970 C.3   297  PHE297      0.1736
     99  C          7.3330   17.8490   16.9190 C.2   297  PHE297      0.2595
    100  O          6.5270   17.6280   16.0160 O.2   297  PHE297     -0.2718
    101  CB         9.7470   17.2490   16.7640 C.3   297  PHE297      0.0547
    102  CG         9.4820   16.0780   15.8780 C.ar  297  PHE297     -0.0202
    103  CD1        9.7730   16.1390   14.5200 C.ar  297  PHE297     -0.0042
    104  CD2        8.8900   14.9300   16.3880 C.ar  297  PHE297     -0.0042
    105  CE1        9.4720   15.0710   13.6800 C.ar  297  PHE297     -0.0003
    106  CE2        8.5850   13.8580   15.5580 C.ar  297  PHE297     -0.0003
    107  CZ         8.8760   13.9290   14.2020 C.ar  297  PHE297     -0.0000
    108  N          7.0430   17.6410   18.2010 N.am  298  HIS298     -0.1975
    109  CA         5.7370   17.1190   18.5980 C.3   298  HIS298      0.1656
    110  C          4.5740   18.1010   18.5330 C.2   298  HIS298      0.2291
    111  O          3.4220   17.6830   18.4380 O.2   298  HIS298     -0.2864
    112  CB         5.7900   16.5470   20.0180 C.3   298  HIS298      0.0771
    113  CG         6.4540   15.2110   20.1070 C.ar  298  HIS298      0.0820
    114  ND1        7.8230   15.0550   20.0830 N.ar  298  HIS298     -0.2267
    115  CD2        5.9340   13.9640   20.2040 C.ar  298  HIS298      0.1154
    116  CE1        8.1190   13.7700   20.1630 C.ar  298  HIS298      0.1986
    117  NE2        6.9910   13.0860   20.2370 N.ar  298  HIS298     -0.2212
@<TRIPOS>BOND
     1    51    52    1
     2    53    54    2
     3    53    52    1
     4    52    55    1
     5    55    56    1
     6    65    66    1
     7    57    56   ar
     8    57    59   ar
     9    56    58   ar
    10   105   107   ar
    11   105   103   ar
    12    75    76    1
    13    75    74    1
    14    76    70    1
    15   107   106   ar
    16    66    69    1
    17    66    67    1
    18    59    60   ar
    19   103   102   ar
    20    58    60   ar
    21    58    61   ar
    22    70    67   am
    23    70    71    1
    24    67    68    2
    25    72    71    1
    26    72    73    2
    27    60    62   ar
    28    74    71    1
    29    61    63   ar
    30   106   104   ar
    31    49    48   ar
    32   102   104   ar
    33   102   101    1
    34   100    99    2
    35    98   101    1
    36    98    99    1
    37    98    97    1
    38    62    64   ar
    39    48    50   ar
    40    48    47    1
    41    63    64   ar
    42    99   108   am
    43    45    46    2
    44    45    44    1
    45    77    78    1
    46    32    31    1
    47    30    31   ar
    48    30    28   ar
    49    44    47    1
    50    44    43    1
    51    79    78    1
    52    79    80    2
    53    31    29   ar
    54   108   109    1
    55    78    81    1
    56    28    26   ar
    57    12    11    1
    58   111   110    2
    59    81    82    1
    60   110   109    1
    61   109   112    1
    62    83    82   ar
    63    83    85   ar
    64    29    27   ar
    65    82    84   ar
    66    26    27   ar
    67    26    25    1
    68    85    87   ar
    69    11    10    1
    70    11    13    1
    71   112   113    1
    72   114   113   ar
    73   114   116   ar
    74   113   115   ar
    75   116   117   ar
    76    25    22    1
    77    10     7    1
    78   115   117   ar
    79    84    86   ar
    80    22    23    1
    81    22    21    1
    82    92    91    2
    83    87    86   ar
    84    87    88    1
    85    23    24    2
    86    95    93    1
    87    91    90    1
    88    17    16    2
    89     9     8    2
    90    90    93    1
    91    90    89    1
    92    93    94    1
    93    21    16   am
    94     7     8    1
    95     7     6    1
    96    16    15    1
    97     8    14   am
    98     6     3   am
    99    94    96    1
   100    14    15    1
   101    14    20    1
   102    15    18    1
   103     3     2    1
   104     3     4    2
   105     2     5    1
   106     2     1    1
   107    20    19    1
   108    18    19    1
   109    42    40   ar
   110    42    41   ar
   111    40    38   ar
   112    41    39   ar
   113    38    39   ar
   114    38    37    1
   115    37    34    1
   116    34    33    1
   117    34    35    1
   118    36    35    2
