@<TRIPOS>MOLECULE
tmp/1pfyA00.pdb
 200 199 0 0 0
SMALL
GASTEIGER

@<TRIPOS>ATOM
      1  N          8.6610    9.1740   24.7210 N.3     9  ALA9       -0.1231
      2  CA         9.4270    9.2980   23.4820 C.3     9  ALA9        0.1694
      3  C         10.1320    7.9680   23.2060 C.2     9  ALA9        0.2592
      4  O         10.4730    7.2350   24.1360 O.2     9  ALA9       -0.2718
      5  CB        10.4500   10.4160   23.5960 C.3     9  ALA9        0.0304
      6  N         10.3400    7.6560   21.9310 N.am   10  LEU10      -0.1966
      7  CA        11.0030    6.4110   21.5490 C.3    10  LEU10       0.1713
      8  C         12.5150    6.6180   21.6550 C.2    10  LEU10       0.2458
      9  O         13.1020    7.3420   20.8620 O.2    10  LEU10      -0.2730
     10  CB        10.5960    6.0320   20.1170 C.3    10  LEU10       0.0310
     11  CG         9.0850    6.0730   19.8400 C.3    10  LEU10       0.0022
     12  CD1        8.8000    5.5610   18.4250 C.3    10  LEU10       0.0001
     13  CD2        8.3400    5.2240   20.8790 C.3    10  LEU10       0.0001
     14  N         13.1640    5.9770   22.6440 N.am   11  PRO11      -0.2716
     15  CA        14.6140    6.1020   22.8580 C.3    11  PRO11       0.1536
     16  C         15.4540    5.6530   21.6670 C.2    11  PRO11       0.2598
     17  O         15.1620    4.6290   21.0580 O.2    11  PRO11      -0.2715
     18  CB        14.8730    5.2050   24.0760 C.3    11  PRO11       0.0310
     19  CG        13.5200    5.0310   24.7150 C.3    11  PRO11       0.0237
     20  CD        12.5950    4.9560   23.5420 C.3    11  PRO11       0.0939
     21  N         16.4960    6.4140   21.3360 N.am   12  TYR12      -0.1974
     22  CA        17.3740    6.0290   20.2300 C.3    12  TYR12       0.1639
     23  C         18.0810    4.7260   20.5850 C.2    12  TYR12       0.2290
     24  O         18.5170    4.5400   21.7200 O.2    12  TYR12      -0.2864
     25  CB        18.4160    7.1140   19.9470 C.3    12  TYR12       0.0560
     26  CG        17.9150    8.2060   19.0280 C.ar   12  TYR12      -0.0198
     27  CD1       17.3470    7.8930   17.7930 C.ar   12  TYR12      -0.0009
     28  CD2       18.0110    9.5500   19.3880 C.ar   12  TYR12      -0.0009
     29  CE1       16.8830    8.8940   16.9360 C.ar   12  TYR12       0.0417
     30  CE2       17.5540   10.5590   18.5380 C.ar   12  TYR12       0.0417
     31  CZ        16.9900   10.2220   17.3180 C.ar   12  TYR12       0.1957
     32  OH        16.5220   11.2140   16.4790 O.3    12  TYR12      -0.2866
     33  N         19.7250    6.0160   30.6300 N.3    18  HIS18      -0.1241
     34  CA        20.3370    6.6420   31.8000 C.3    18  HIS18       0.1621
     35  C         19.2770    7.3110   32.6720 C.2    18  HIS18       0.2264
     36  O         18.0950    7.3250   32.3190 O.2    18  HIS18      -0.2867
     37  CB        21.4400    7.6430   31.3980 C.3    18  HIS18       0.0745
     38  CG        21.0080    8.6810   30.4070 C.ar   18  HIS18       0.0817
     39  ND1       19.9680    9.5540   30.6430 N.ar   18  HIS18      -0.2268
     40  CD2       21.5090    9.0120   29.1920 C.ar   18  HIS18       0.1154
     41  CE1       19.8470   10.3790   29.6180 C.ar   18  HIS18       0.1986
     42  NE2       20.7700   10.0730   28.7240 N.ar   18  HIS18      -0.2212
     43  N         18.4480   10.2250   33.0610 N.3    20  GLY20      -0.1210
     44  CA        17.7120   11.2720   32.3830 C.3    20  GLY20       0.1956
     45  C         16.4750   10.6860   31.7320 C.2    20  GLY20       0.2611
     46  O         15.3680   11.2080   31.8960 O.2    20  GLY20      -0.2717
     47  N         16.6600    9.5960   30.9930 N.am   21  HIS21      -0.1975
     48  CA        15.5440    8.9170   30.3380 C.3    21  HIS21       0.1656
     49  C         14.5320    8.4480   31.3890 C.2    21  HIS21       0.2291
     50  O         13.3140    8.5830   31.2050 O.2    21  HIS21      -0.2864
     51  CB        16.0160    7.6750   29.5650 C.3    21  HIS21       0.0771
     52  CG        16.9940    7.9590   28.4660 C.ar   21  HIS21       0.0820
     53  ND1       18.3040    7.5310   28.5080 N.ar   21  HIS21      -0.2267
     54  CD2       16.8430    8.5900   27.2760 C.ar   21  HIS21       0.1154
     55  CE1       18.9180    7.8850   27.3920 C.ar   21  HIS21       0.1986
     56  NE2       18.0530    8.5290   26.6280 N.ar   21  HIS21      -0.2212
     57  N         13.5940    9.6490   34.2010 N.3    23  LEU23      -0.1231
     58  CA        12.6850   10.6710   34.7120 C.3    23  LEU23       0.1693
     59  C         11.4280   10.6610   33.8310 C.2    23  LEU23       0.2592
     60  O         10.2990   10.6960   34.3240 O.2    23  LEU23      -0.2718
     61  CB        13.3330   12.0590   34.6470 C.3    23  LEU23       0.0284
     62  CG        12.4210   13.2420   34.9960 C.3    23  LEU23       0.0019
     63  CD1       12.0890   13.2140   36.4800 C.3    23  LEU23       0.0001
     64  CD2       13.1070   14.5530   34.6370 C.3    23  LEU23       0.0001
     65  N         11.6370   10.6070   32.5210 N.am   24  GLU24      -0.1966
     66  CA        10.5270   10.5960   31.5770 C.3    24  GLU24       0.1733
     67  C          9.6050    9.3920   31.7310 C.2    24  GLU24       0.2616
     68  O          8.3850    9.5360   31.8260 O.2    24  GLU24      -0.2715
     69  CB        11.0560   10.6410   30.1430 C.3    24  GLU24       0.0429
     70  CG         9.9610   10.6290   29.0770 C.3    24  GLU24       0.1163
     71  CD        10.5040   10.9130   27.6910 C.2    24  GLU24       0.3649
     72  OE1       10.9530   12.0550   27.4510 O.co2  24  GLU24      -0.2457
     73  OE2       10.4830    9.9980   26.8410 O.co2  24  GLU24      -0.2457
     74  N         10.1870    8.2010   31.7570 N.am   25  HIS25      -0.1973
     75  CA         9.3940    6.9850   31.8650 C.3    25  HIS25       0.1656
     76  C          8.7400    6.8260   33.2190 C.2    25  HIS25       0.2291
     77  O          7.6480    6.2690   33.3210 O.2    25  HIS25      -0.2864
     78  CB        10.2670    5.7790   31.5200 C.3    25  HIS25       0.0771
     79  CG        10.6930    5.7610   30.0880 C.ar   25  HIS25       0.0820
     80  ND1       10.1320    4.9150   29.1540 N.ar   25  HIS25      -0.2267
     81  CD2       11.5580    6.5520   29.4080 C.ar   25  HIS25       0.1154
     82  CE1       10.6310    5.1870   27.9610 C.ar   25  HIS25       0.1986
     83  NE2       11.4970    6.1770   28.0880 N.ar   25  HIS25      -0.2212
     84  N         13.7120    3.8170   18.8110 N.3    49  ASP49      -0.1239
     85  CA        13.8070    4.5980   17.5690 C.3    49  ASP49       0.1674
     86  C         15.0950    4.0220   16.9670 C.2    49  ASP49       0.2266
     87  O         16.1970    4.3820   17.3920 O.2    49  ASP49      -0.2867
     88  CB        13.9910    6.0810   17.9040 C.3    49  ASP49       0.1410
     89  CG        13.8190    6.9920   16.6960 C.2    49  ASP49       0.3668
     90  OD1       13.7860    6.4890   15.5550 O.co2  49  ASP49      -0.2456
     91  OD2       13.7240    8.2260   16.8960 O.co2  49  ASP49      -0.2456
     92  N         13.3020   11.1160   11.5200 N.3   250  TRP250     -0.1241
     93  CA        12.2900   11.8560   12.2690 C.3   250  TRP250      0.1605
     94  C         10.9140   11.8380   11.6130 C.2   250  TRP250      0.2264
     95  O          9.9140   12.1890   12.2380 O.2   250  TRP250     -0.2867
     96  CB        12.7460   13.2950   12.5280 C.3   250  TRP250      0.0550
     97  CG        13.4120   13.4560   13.8710 C.ar  250  TRP250      0.0003
     98  CD1       14.7320   13.6960   14.1130 C.ar  250  TRP250      0.0946
     99  CD2       12.7810   13.3530   15.1560 C.ar  250  TRP250      0.0152
    100  NE1       14.9660   13.7490   15.4710 N.ar  250  TRP250     -0.2442
    101  CE2       13.7850   13.5400   16.1330 C.ar  250  TRP250      0.0810
    102  CE3       11.4640   13.1190   15.5760 C.ar  250  TRP250      0.0012
    103  CZ2       13.5140   13.5010   17.5060 C.ar  250  TRP250      0.0191
    104  CZ3       11.1920   13.0800   16.9430 C.ar  250  TRP250      0.0001
    105  CH2       12.2160   13.2710   17.8910 C.ar  250  TRP250      0.0015
    106  N          9.7500    8.1820   12.9130 N.3   253  ALA253     -0.1231
    107  CA         9.8000    8.0240   14.3640 C.3   253  ALA253      0.1679
    108  C          8.4540    8.1880   15.0860 C.2   253  ALA253      0.2434
    109  O          8.0270    7.2830   15.8110 O.2   253  ALA253     -0.2733
    110  CB        10.8470    8.9830   14.9560 C.3   253  ALA253      0.0304
    111  N          7.7680    9.3380   14.9140 N.am  254  PRO254     -0.2729
    112  CA         6.4810    9.4770   15.6120 C.3   254  PRO254      0.1401
    113  C          5.4260    8.5220   15.0530 C.2   254  PRO254      0.2269
    114  O          4.4860    8.1450   15.7530 O.2   254  PRO254     -0.2865
    115  CB         6.1220   10.9510   15.4070 C.3   254  PRO254      0.0296
    116  CG         6.7730   11.2850   14.0900 C.3   254  PRO254      0.0237
    117  CD         8.1140   10.5720   14.1830 C.3   254  PRO254      0.0939
    118  N          4.7640    5.4810   17.0210 N.3   257  TYR257     -0.1241
    119  CA         3.7720    5.4210   18.0940 C.3   257  TYR257      0.1605
    120  C          2.5850    4.6160   17.5460 C.2   257  TYR257      0.2264
    121  O          2.0380    3.7400   18.2200 O.2   257  TYR257     -0.2867
    122  CB         3.2860    6.8300   18.4750 C.3   257  TYR257      0.0534
    123  CG         4.3190    7.7290   19.1350 C.ar  257  TYR257     -0.0201
    124  CD1        4.4280    9.0690   18.7640 C.ar  257  TYR257     -0.0009
    125  CD2        5.1380    7.2640   20.1680 C.ar  257  TYR257     -0.0009
    126  CE1        5.3180    9.9340   19.4020 C.ar  257  TYR257      0.0417
    127  CE2        6.0410    8.1300   20.8240 C.ar  257  TYR257      0.0417
    128  CZ         6.1190    9.4630   20.4300 C.ar  257  TYR257      0.1957
    129  OH         6.9720   10.3430   21.0610 O.3   257  TYR257     -0.2866
    130  N         10.5370   15.1780   26.2500 N.3   291  GLY291     -0.1225
    131  CA        11.4550   16.1540   26.8230 C.3   291  GLY291      0.1811
    132  C         11.3960   17.4270   25.9900 C.2   291  GLY291      0.2280
    133  O         11.0140   17.3770   24.8240 O.2   291  GLY291     -0.2866
    134  N         13.5200   19.0840   24.3510 N.3   293  ASP293     -0.1225
    135  CA        14.4030   19.1790   23.1860 C.3   293  ASP293      0.1805
    136  C         13.7930   18.6090   21.9050 C.2   293  ASP293      0.2597
    137  O         14.3510   18.7740   20.8240 O.2   293  ASP293     -0.2718
    138  CB        15.7430   18.4860   23.4680 C.3   293  ASP293      0.1424
    139  CG        15.5940   17.0010   23.7620 C.2   293  ASP293      0.3668
    140  OD1       14.5810   16.6080   24.3770 O.co2 293  ASP293     -0.2456
    141  OD2       16.5030   16.2300   23.3960 O.co2 293  ASP293     -0.2456
    142  N         12.6470   17.9460   22.0180 N.am  294  ILE294     -0.1980
    143  CA        12.0120   17.3640   20.8410 C.3   294  ILE294      0.1595
    144  C         10.5730   17.8260   20.6800 C.2   294  ILE294      0.2287
    145  O          9.7500   17.1370   20.0730 O.2   294  ILE294     -0.2864
    146  CB        12.0440   15.8140   20.8930 C.3   294  ILE294      0.0276
    147  CG1       11.3160   15.3060   22.1430 C.3   294  ILE294      0.0022
    148  CG2       13.4880   15.3240   20.8760 C.3   294  ILE294      0.0022
    149  CD1       11.2820   13.7760   22.2550 C.3   294  ILE294      0.0001
    150  N          7.0820   17.1690   17.7930 N.3   298  HIS298     -0.1241
    151  CA         5.7800   16.7480   18.2950 C.3   298  HIS298      0.1621
    152  C          4.6630   17.7860   18.2640 C.2   298  HIS298      0.2264
    153  O          3.4940   17.4250   18.2460 O.2   298  HIS298     -0.2867
    154  CB         5.9180   16.2340   19.7370 C.3   298  HIS298      0.0745
    155  CG         6.6580   14.9370   19.8510 C.ar  298  HIS298      0.0817
    156  ND1        8.0320   14.8520   19.7800 N.ar  298  HIS298     -0.2268
    157  CD2        6.2100   13.6680   20.0000 C.ar  298  HIS298      0.1154
    158  CE1        8.3980   13.5860   19.8780 C.ar  298  HIS298      0.1986
    159  NE2        7.3110   12.8460   20.0120 N.ar  298  HIS298     -0.2212
    160  N          8.4890   17.6750   29.8960 N.3   320  HIS320     -0.1226
    161  CA         9.2350   17.7380   31.1490 C.3   320  HIS320      0.1752
    162  C         10.6080   18.3540   30.9110 C.2   320  HIS320      0.2597
    163  O         11.0840   18.4210   29.7710 O.2   320  HIS320     -0.2718
    164  CB         9.4240   16.3360   31.7370 C.3   320  HIS320      0.0759
    165  CG        10.2780   15.4410   30.8920 C.ar  320  HIS320      0.0818
    166  ND1        9.7620   14.3950   30.1580 N.ar  320  HIS320     -0.2268
    167  CD2       11.6070   15.4630   30.6330 C.ar  320  HIS320      0.1154
    168  CE1       10.7360   13.8130   29.4810 C.ar  320  HIS320      0.1986
    169  NE2       11.8660   14.4430   29.7500 N.ar  320  HIS320     -0.2212
    170  N         11.2380   18.7900   31.9990 N.am  321  GLY321     -0.1942
    171  CA        12.5570   19.3850   31.9200 C.3   321  GLY321      0.2014
    172  C         13.6400   18.3230   31.9620 C.2   321  GLY321      0.2639
    173  O         13.3570   17.1280   31.8670 O.2   321  GLY321     -0.2714
    174  N         14.8840   18.7610   32.1230 N.am  322  TYR322     -0.1959
    175  CA        16.0290   17.8590   32.1540 C.3   322  TYR322      0.1771
    176  C         16.4630   17.4720   33.5600 C.2   322  TYR322      0.2619
    177  O         16.2820   18.2260   34.5160 O.2   322  TYR322     -0.2715
    178  CB        17.2180   18.5130   31.4500 C.3   322  TYR322      0.0574
    179  CG        16.9710   18.8800   30.0070 C.ar  322  TYR322     -0.0198
    180  CD1       17.4780   20.0670   29.4790 C.ar  322  TYR322     -0.0009
    181  CD2       16.2540   18.0350   29.1590 C.ar  322  TYR322     -0.0009
    182  CE1       17.2780   20.4070   28.1500 C.ar  322  TYR322      0.0417
    183  CE2       16.0490   18.3660   27.8180 C.ar  322  TYR322      0.0417
    184  CZ        16.5660   19.5540   27.3250 C.ar  322  TYR322      0.1957
    185  OH        16.3800   19.8950   26.0080 O.3   322  TYR322     -0.2866
    186  N         17.0530   16.2910   33.6750 N.am  323  VAL323     -0.1977
    187  CA        17.5520   15.8250   34.9560 C.3   323  VAL323      0.1596
    188  C         18.9740   16.3300   35.1420 C.2   323  VAL323      0.2287
    189  O         19.7840   16.2840   34.2140 O.2   323  VAL323     -0.2864
    190  CB        17.5970   14.2830   35.0340 C.3   323  VAL323      0.0276
    191  CG1       18.3290   13.8470   36.2980 C.3   323  VAL323      0.0022
    192  CG2       16.1920   13.7180   35.0380 C.3   323  VAL323      0.0022
    193  N         24.6750   15.9140   33.8630 N.3   330  MET330     -0.1245
    194  CA        25.4410   14.7220   34.2080 C.3   330  MET330      0.1570
    195  C         26.8600   14.8330   33.6650 C.2   330  MET330      0.2261
    196  O         27.0700   15.2100   32.5100 O.2   330  MET330     -0.2867
    197  CB        24.7550   13.4600   33.6740 C.3   330  MET330      0.0387
    198  CG        23.4180   13.1650   34.3540 C.3   330  MET330      0.0595
    199  SD        22.7350   11.5390   33.9370 S.3   330  MET330     -0.1393
    200  CE        22.1710   11.8370   32.2740 C.3   330  MET330      0.0692
@<TRIPOS>BOND
     1    92    93    1
     2    94    95    2
     3    94    93    1
     4    93    96    1
     5    96    97    1
     6   106   107    1
     7    97    98   ar
     8    97    99   ar
     9   116   117    1
    10   116   115    1
    11    98   100   ar
    12   117   111    1
    13   107   110    1
    14   107   108    1
    15   111   108   am
    16   111   112    1
    17   113   112    1
    18   113   114    2
    19   108   109    2
    20    99   102   ar
    21    99   101   ar
    22   115   112    1
    23   100   101   ar
    24    90    89   ar
    25   102   104   ar
    26   101   103   ar
    27    32    31    1
    28    89    91   ar
    29    89    88    1
    30    29    31   ar
    31    29    27   ar
    32   104   105   ar
    33    86    87    2
    34    86    85    1
    35   118   119    1
    36    31    30   ar
    37   103   105   ar
    38   120   119    1
    39   120   121    2
    40    85    88    1
    41    85    84    1
    42   150   151    1
    43    27    26   ar
    44   119   122    1
    45   153   152    2
    46   152   151    1
    47   151   154    1
    48    12    11    1
    49   122   123    1
    50    30    28   ar
    51   124   123   ar
    52   124   126   ar
    53    26    28   ar
    54    26    25    1
    55   123   125   ar
    56   126   128   ar
    57   154   155    1
    58   156   155   ar
    59   156   158   ar
    60    11    10    1
    61    11    13    1
    62   155   157   ar
    63   158   159   ar
    64    25    22    1
    65   157   159   ar
    66   145   144    2
    67    10     7    1
    68   125   127   ar
    69    22    23    1
    70    22    21    1
    71   128   127   ar
    72   128   129    1
    73    23    24    2
    74   144   143    1
    75   137   136    2
    76   143   146    1
    77   143   142    1
    78     9     8    2
    79   148   146    1
    80   146   147    1
    81    17    16    2
    82    21    16   am
    83     7     8    1
    84     7     6    1
    85     8    14   am
    86    16    15    1
    87   136   142   am
    88   136   135    1
    89     6     3   am
    90   147   149    1
    91    14    15    1
    92    14    20    1
    93    15    18    1
    94   135   138    1
    95   135   134    1
    96     3     2    1
    97     3     4    2
    98   141   139   ar
    99   138   139    1
   100     2     5    1
   101     2     1    1
   102    20    19    1
   103   139   140   ar
   104    18    19    1
   105   133   132    2
   106   132   131    1
   107   185   184    1
   108   130   131    1
   109    56    54   ar
   110    56    55   ar
   111    73    71   ar
   112    54    52   ar
   113   184   183   ar
   114   184   182   ar
   115    55    53   ar
   116    72    71   ar
   117    71    70    1
   118   183   181   ar
   119    82    83   ar
   120    82    80   ar
   121    83    81   ar
   122   182   180   ar
   123    52    53   ar
   124    52    51    1
   125    42    40   ar
   126    42    41   ar
   127    70    69    1
   128    80    79   ar
   129   181   179   ar
   130    40    38   ar
   131    81    79   ar
   132   180   179   ar
   133   168   169   ar
   134   168   166   ar
   135    51    48    1
   136    41    39   ar
   137   169   167   ar
   138   163   162    2
   139   160   161    1
   140   179   178    1
   141    79    78    1
   142    69    66    1
   143   166   165   ar
   144    48    47    1
   145    48    49    1
   146    38    39   ar
   147    38    37    1
   148    33    34    1
   149   167   165   ar
   150   165   164    1
   151   162   161    1
   152   162   170   am
   153    47    45   am
   154   161   164    1
   155    50    49    2
   156    37    34    1
   157   178   175    1
   158    78    75    1
   159    66    67    1
   160    66    65    1
   161    67    74   am
   162    67    68    2
   163    45    46    2
   164    45    44    1
   165    74    75    1
   166    34    35    1
   167    75    76    1
   168   173   172    2
   169   171   172    1
   170   171   170    1
   171   172   174   am
   172   174   175    1
   173   175   176    1
   174   200   199    1
   175    36    35    2
   176    44    43    1
   177   196   195    2
   178    65    59   am
   179    76    77    2
   180   176   186   am
   181   176   177    2
   182   195   194    1
   183   197   194    1
   184   197   198    1
   185   186   187    1
   186    59    60    2
   187    59    58    1
   188   193   194    1
   189   199   198    1
   190    57    58    1
   191   189   188    2
   192    64    62    1
   193    61    58    1
   194    61    62    1
   195   187   190    1
   196   187   188    1
   197    62    63    1
   198   190   192    1
   199   190   191    1
