@<TRIPOS>MOLECULE
tmp/1pg0A00.pdb
 200 199 0 0 0
SMALL
GASTEIGER

@<TRIPOS>ATOM
      1  N          7.4640    8.1730   25.0130 N.3     9  ALA9       -0.1231
      2  CA         8.2330    8.3140   23.7840 C.3     9  ALA9        0.1694
      3  C          9.0100    7.0100   23.5540 C.2     9  ALA9        0.2592
      4  O          9.3310    6.2940   24.5000 O.2     9  ALA9       -0.2718
      5  CB         9.1980    9.5000   23.8960 C.3     9  ALA9        0.0304
      6  N          9.3020    6.7050   22.2970 N.am   10  LEU10      -0.1966
      7  CA        10.0270    5.4850   21.9450 C.3    10  LEU10       0.1713
      8  C         11.5260    5.7400   22.0700 C.2    10  LEU10       0.2458
      9  O         12.0880    6.5100   21.2960 O.2    10  LEU10      -0.2730
     10  CB         9.6730    5.0850   20.5080 C.3    10  LEU10       0.0310
     11  CG         8.1690    5.1100   20.2080 C.3    10  LEU10       0.0022
     12  CD1        7.9160    4.6310   18.7870 C.3    10  LEU10       0.0001
     13  CD2        7.4260    4.2300   21.2080 C.3    10  LEU10       0.0001
     14  N         12.1940    5.0910   23.0470 N.am   11  PRO11      -0.2716
     15  CA        13.6360    5.2570   23.2750 C.3    11  PRO11       0.1536
     16  C         14.4600    4.8710   22.0540 C.2    11  PRO11       0.2598
     17  O         14.1610    3.8740   21.3930 O.2    11  PRO11      -0.2715
     18  CB        13.9290    4.3090   24.4440 C.3    11  PRO11       0.0310
     19  CG        12.5950    4.0480   25.0750 C.3    11  PRO11       0.0237
     20  CD        11.6530    4.0220   23.9020 C.3    11  PRO11       0.0939
     21  N         15.4970    5.6470   21.7500 N.am   12  TYR12      -0.1974
     22  CA        16.3420    5.2990   20.6190 C.3    12  TYR12       0.1639
     23  C         17.0870    4.0160   20.9700 C.2    12  TYR12       0.2290
     24  O         17.5160    3.8270   22.1070 O.2    12  TYR12      -0.2864
     25  CB        17.3370    6.4150   20.2940 C.3    12  TYR12       0.0560
     26  CG        16.8360    7.3820   19.2380 C.ar   12  TYR12      -0.0198
     27  CD1       16.3680    6.9180   18.0030 C.ar   12  TYR12      -0.0009
     28  CD2       16.8110    8.7550   19.4760 C.ar   12  TYR12      -0.0009
     29  CE1       15.8810    7.8040   17.0340 C.ar   12  TYR12       0.0417
     30  CE2       16.3290    9.6450   18.5180 C.ar   12  TYR12       0.0417
     31  CZ        15.8660    9.1670   17.3030 C.ar   12  TYR12       0.1957
     32  OH        15.3790   10.0520   16.3620 O.3    12  TYR12      -0.2866
     33  N         18.5880    5.4380   31.0740 N.3    18  HIS18      -0.1241
     34  CA        19.1670    6.1040   32.2400 C.3    18  HIS18       0.1621
     35  C         18.0700    6.7130   33.1170 C.2    18  HIS18       0.2264
     36  O         16.8800    6.6170   32.7860 O.2    18  HIS18      -0.2867
     37  CB        20.1860    7.1680   31.8040 C.3    18  HIS18       0.0745
     38  CG        19.6780    8.1120   30.7590 C.ar   18  HIS18       0.0817
     39  ND1       18.6560    9.0060   30.9940 N.ar   18  HIS18      -0.2268
     40  CD2       20.0780    8.3260   29.4820 C.ar   18  HIS18       0.1154
     41  CE1       18.4500    9.7320   29.9090 C.ar   18  HIS18       0.1986
     42  NE2       19.3000    9.3410   28.9770 N.ar   18  HIS18      -0.2212
     43  N         17.0930    9.5980   33.4500 N.3    20  GLY20      -0.1210
     44  CA        16.3390   10.6300   32.7620 C.3    20  GLY20       0.1956
     45  C         15.1450    9.9790   32.0860 C.2    20  GLY20       0.2611
     46  O         14.0130   10.4610   32.1890 O.2    20  GLY20      -0.2717
     47  N         15.3970    8.8730   31.3930 N.am   21  HIS21      -0.1975
     48  CA        14.3290    8.1250   30.7360 C.3    21  HIS21       0.1656
     49  C         13.3280    7.6310   31.7660 C.2    21  HIS21       0.2291
     50  O         12.1240    7.6140   31.5060 O.2    21  HIS21      -0.2864
     51  CB        14.8570    6.8770   30.0220 C.3    21  HIS21       0.0771
     52  CG        15.6960    7.1550   28.8180 C.ar   21  HIS21       0.0820
     53  ND1       16.9650    6.6420   28.6690 N.ar   21  HIS21      -0.2267
     54  CD2       15.4270    7.8360   27.6780 C.ar   21  HIS21       0.1154
     55  CE1       17.4430    6.9910   27.4890 C.ar   21  HIS21       0.1986
     56  NE2       16.5290    7.7150   26.8660 N.ar   21  HIS21      -0.2212
     57  N         12.2680    8.9330   34.5480 N.3    23  LEU23      -0.1231
     58  CA        11.3190    9.9160   35.0610 C.3    23  LEU23       0.1693
     59  C         10.0530    9.8150   34.2040 C.2    23  LEU23       0.2592
     60  O          8.9450    9.7430   34.7160 O.2    23  LEU23      -0.2718
     61  CB        11.8880   11.3370   34.9580 C.3    23  LEU23       0.0284
     62  CG        10.8740   12.4370   35.3040 C.3    23  LEU23       0.0019
     63  CD1       10.5430   12.3700   36.7790 C.3    23  LEU23       0.0001
     64  CD2       11.4350   13.8050   34.9480 C.3    23  LEU23       0.0001
     65  N         10.2420    9.7980   32.8930 N.am   24  GLU24      -0.1966
     66  CA         9.1370    9.7130   31.9480 C.3    24  GLU24       0.1733
     67  C          8.2820    8.4590   32.1160 C.2    24  GLU24       0.2616
     68  O          7.0570    8.5380   32.1850 O.2    24  GLU24      -0.2715
     69  CB         9.6870    9.7630   30.5270 C.3    24  GLU24       0.0429
     70  CG         8.6460    9.6150   29.4230 C.3    24  GLU24       0.1163
     71  CD         9.2180    9.9300   28.0560 C.2    24  GLU24       0.3649
     72  OE1        9.6900   11.0700   27.8640 O.co2  24  GLU24      -0.2457
     73  OE2        9.2060    9.0430   27.1750 O.co2  24  GLU24      -0.2457
     74  N          8.9360    7.3020   32.1660 N.am   25  HIS25      -0.1973
     75  CA         8.2360    6.0330   32.2890 C.3    25  HIS25       0.1656
     76  C          7.5610    5.8660   33.6390 C.2    25  HIS25       0.2291
     77  O          6.4740    5.2860   33.7320 O.2    25  HIS25      -0.2864
     78  CB         9.2140    4.8840   31.9930 C.3    25  HIS25       0.0771
     79  CG         9.6280    4.8210   30.5560 C.ar   25  HIS25       0.0820
     80  ND1        9.0800    3.9260   29.6630 N.ar   25  HIS25      -0.2267
     81  CD2       10.4510    5.6160   29.8320 C.ar   25  HIS25       0.1154
     82  CE1        9.5400    4.1770   28.4520 C.ar   25  HIS25       0.1986
     83  NE2       10.3750    5.1980   28.5270 N.ar   25  HIS25      -0.2212
     84  N         12.7720    2.9240   19.2560 N.3    49  ASP49      -0.1239
     85  CA        12.8550    3.6990   18.0130 C.3    49  ASP49       0.1674
     86  C         14.1200    3.1290   17.3730 C.2    49  ASP49       0.2266
     87  O         15.2330    3.5200   17.7280 O.2    49  ASP49      -0.2867
     88  CB        13.0570    5.1840   18.3390 C.3    49  ASP49       0.1410
     89  CG        12.8470    6.0840   17.1340 C.2    49  ASP49       0.3668
     90  OD1       12.7640    5.5650   16.0000 O.co2  49  ASP49      -0.2456
     91  OD2       12.7680    7.3140   17.3290 O.co2  49  ASP49      -0.2456
     92  N         12.1320   10.0520   11.8630 N.3   195  TRP195     -0.1241
     93  CA        11.1070   10.8050   12.5810 C.3   195  TRP195      0.1605
     94  C          9.7120   10.7340   11.9850 C.2   195  TRP195      0.2264
     95  O          8.7330   11.0970   12.6350 O.2   195  TRP195     -0.2867
     96  CB        11.5380   12.2660   12.7550 C.3   195  TRP195      0.0550
     97  CG        12.1990   12.4950   14.0890 C.ar  195  TRP195      0.0003
     98  CD1       13.5000   12.8420   14.3190 C.ar  195  TRP195      0.0946
     99  CD2       11.5810   12.3720   15.3770 C.ar  195  TRP195      0.0152
    100  NE1       13.7290   12.9450   15.6740 N.ar  195  TRP195     -0.2442
    101  CE2       12.5680   12.6620   16.3440 C.ar  195  TRP195      0.0810
    102  CE3       10.2870   12.0470   15.8070 C.ar  195  TRP195      0.0012
    103  CZ2       12.3020   12.6350   17.7200 C.ar  195  TRP195      0.0191
    104  CZ3       10.0220   12.0210   17.1760 C.ar  195  TRP195      0.0001
    105  CH2       11.0260   12.3130   18.1130 C.ar  195  TRP195      0.0015
    106  N          8.7290    6.9860   13.2770 N.3   198  ALA198     -0.1231
    107  CA         8.8090    6.8540   14.7370 C.3   198  ALA198      0.1679
    108  C          7.4470    6.9940   15.4280 C.2   198  ALA198      0.2434
    109  O          7.0020    6.0760   16.1070 O.2   198  ALA198     -0.2733
    110  CB         9.8020    7.8750   15.3080 C.3   198  ALA198      0.0304
    111  N          6.7670    8.1450   15.2660 N.am  199  PRO199     -0.2729
    112  CA         5.4620    8.2690   15.9250 C.3   199  PRO199      0.1401
    113  C          4.4520    7.2600   15.3840 C.2   199  PRO199      0.2269
    114  O          3.5290    6.8580   16.0880 O.2   199  PRO199     -0.2865
    115  CB         5.0640    9.7240   15.6440 C.3   199  PRO199      0.0296
    116  CG         5.7260   10.0100   14.3460 C.3   199  PRO199      0.0237
    117  CD         7.0930    9.3690   14.5160 C.3   199  PRO199      0.0939
    118  N          3.7730    4.2670   17.4210 N.3   202  TYR202     -0.1241
    119  CA         2.7680    4.2080   18.4820 C.3   202  TYR202      0.1605
    120  C          1.6200    3.3610   17.9400 C.2   202  TYR202      0.2264
    121  O          1.0850    2.4810   18.6220 O.2   202  TYR202     -0.2867
    122  CB         2.2240    5.6060   18.8030 C.3   202  TYR202      0.0534
    123  CG         3.1990    6.5450   19.4730 C.ar  202  TYR202     -0.0201
    124  CD1        3.2770    7.8770   19.0820 C.ar  202  TYR202     -0.0009
    125  CD2        4.0010    6.1200   20.5290 C.ar  202  TYR202     -0.0009
    126  CE1        4.1200    8.7710   19.7260 C.ar  202  TYR202      0.0417
    127  CE2        4.8540    7.0110   21.1870 C.ar  202  TYR202      0.0417
    128  CZ         4.9030    8.3340   20.7800 C.ar  202  TYR202      0.1957
    129  OH         5.7010    9.2370   21.4420 O.3   202  TYR202     -0.2866
    130  N          9.1210   14.3150   26.5580 N.3   236  GLY236     -0.1225
    131  CA         9.9980   15.3360   27.1040 C.3   236  GLY236      0.1811
    132  C          9.9150   16.5730   26.2240 C.2   236  GLY236      0.2280
    133  O          9.4940   16.4930   25.0710 O.2   236  GLY236     -0.2866
    134  N         12.0550   18.1310   24.5370 N.3   238  ASP238     -0.1225
    135  CA        12.9320   18.1710   23.3710 C.3   238  ASP238      0.1805
    136  C         12.3080   17.5680   22.1140 C.2   238  ASP238      0.2597
    137  O         12.9060   17.6320   21.0390 O.2   238  ASP238     -0.2718
    138  CB        14.2520   17.4620   23.6760 C.3   238  ASP238      0.1424
    139  CG        14.0640   16.0020   24.0190 C.2   238  ASP238      0.3668
    140  OD1       13.0200   15.6600   24.6120 O.co2 238  ASP238     -0.2456
    141  OD2       14.9710   15.2010   23.7100 O.co2 238  ASP238     -0.2456
    142  N         11.1160   16.9900   22.2380 N.am  239  ILE239     -0.1980
    143  CA        10.4430   16.3960   21.0820 C.3   239  ILE239      0.1595
    144  C          8.9960   16.8640   20.9450 C.2   239  ILE239      0.2287
    145  O          8.1690   16.2010   20.3090 O.2   239  ILE239     -0.2864
    146  CB        10.4640   14.8420   21.1500 C.3   239  ILE239      0.0276
    147  CG1        9.7300   14.3520   22.4080 C.3   239  ILE239      0.0022
    148  CG2       11.9060   14.3450   21.1400 C.3   239  ILE239      0.0022
    149  CD1        9.6840   12.8250   22.5370 C.3   239  ILE239      0.0001
    150  N          5.5640   16.0340   18.0830 N.3   243  HIS243     -0.1241
    151  CA         4.2930   15.5700   18.6160 C.3   243  HIS243      0.1621
    152  C          3.1370   16.5750   18.5720 C.2   243  HIS243      0.2264
    153  O          1.9710   16.1780   18.5560 O.2   243  HIS243     -0.2867
    154  CB         4.4860   15.0810   20.0630 C.3   243  HIS243      0.0745
    155  CG         5.2690   13.8060   20.1800 C.ar  243  HIS243      0.0817
    156  ND1        6.6430   13.7570   20.0620 N.ar  243  HIS243     -0.2268
    157  CD2        4.8650   12.5330   20.3940 C.ar  243  HIS243      0.1154
    158  CE1        7.0500   12.5090   20.1970 C.ar  243  HIS243      0.1986
    159  NE2        5.9910   11.7440   20.3990 N.ar  243  HIS243     -0.2212
    160  N          6.9820   16.6920   30.2260 N.3   265  HIS265     -0.1226
    161  CA         7.6880   16.8000   31.4990 C.3   265  HIS265      0.1752
    162  C          9.0510   17.4340   31.2390 C.2   265  HIS265      0.2597
    163  O          9.4910   17.5170   30.0900 O.2   265  HIS265     -0.2718
    164  CB         7.8980   15.4130   32.1220 C.3   265  HIS265      0.0759
    165  CG         8.7560   14.5190   31.2870 C.ar  265  HIS265      0.0818
    166  ND1        8.2340   13.5760   30.4280 N.ar  265  HIS265     -0.2268
    167  CD2       10.0910   14.5200   31.0750 C.ar  265  HIS265      0.1154
    168  CE1        9.2110   13.0430   29.7190 C.ar  265  HIS265      0.1986
    169  NE2       10.3470   13.6000   30.0920 N.ar  265  HIS265     -0.2212
    170  N          9.7170   17.8590   32.3090 N.am  266  GLY266     -0.1942
    171  CA        11.0270   18.4720   32.1800 C.3   266  GLY266      0.2014
    172  C         12.1500   17.4530   32.2770 C.2   266  GLY266      0.2639
    173  O         11.9150   16.2470   32.2860 O.2   266  GLY266     -0.2714
    174  N         13.3780   17.9400   32.3640 N.am  267  TYR267     -0.1959
    175  CA        14.5370   17.0620   32.4470 C.3   267  TYR267      0.1771
    176  C         14.9400   16.7300   33.8710 C.2   267  TYR267      0.2619
    177  O         14.6900   17.4930   34.8070 O.2   267  TYR267     -0.2715
    178  CB        15.7170   17.7090   31.7180 C.3   267  TYR267      0.0574
    179  CG        15.4370   17.9280   30.2530 C.ar  267  TYR267     -0.0198
    180  CD1       15.9330   19.0450   29.5810 C.ar  267  TYR267     -0.0009
    181  CD2       14.6620   17.0130   29.5360 C.ar  267  TYR267     -0.0009
    182  CE1       15.6550   19.2450   28.2280 C.ar  267  TYR267      0.0417
    183  CE2       14.3820   17.2030   28.1940 C.ar  267  TYR267      0.0417
    184  CZ        14.8780   18.3170   27.5460 C.ar  267  TYR267      0.1957
    185  OH        14.5790   18.4980   26.2180 O.3   267  TYR267     -0.2866
    186  N         15.5640   15.5720   34.0370 N.am  268  VAL268     -0.1977
    187  CA        16.0270   15.1750   35.3520 C.3   268  VAL268      0.1596
    188  C         17.4500   15.6950   35.5060 C.2   268  VAL268      0.2287
    189  O         18.2540   15.5830   34.5870 O.2   268  VAL268     -0.2864
    190  CB        16.0750   13.6370   35.5250 C.3   268  VAL268      0.0276
    191  CG1       16.7390   13.2860   36.8630 C.3   268  VAL268      0.0022
    192  CG2       14.6770   13.0630   35.4880 C.3   268  VAL268      0.0022
    193  N         23.2430   15.4680   34.2760 N.3   275  MET275     -0.1245
    194  CA        24.0140   14.2790   34.6400 C.3   275  MET275      0.1570
    195  C         25.4420   14.4100   34.1280 C.2   275  MET275      0.2261
    196  O         25.6730   14.9130   33.0240 O.2   275  MET275     -0.2867
    197  CB        23.3610   13.0080   34.0830 C.3   275  MET275      0.0387
    198  CG        22.0350   12.6670   34.7430 C.3   275  MET275      0.0595
    199  SD        21.3530   11.0690   34.2400 S.3   275  MET275     -0.1393
    200  CE        20.8030   11.4540   32.5980 C.3   275  MET275      0.0692
@<TRIPOS>BOND
     1    92    93    1
     2    94    93    1
     3    94    95    2
     4    93    96    1
     5    96    97    1
     6   106   107    1
     7    97    98   ar
     8    97    99   ar
     9    98   100   ar
    10   116   117    1
    11   116   115    1
    12   117   111    1
    13   107   110    1
    14   107   108    1
    15   111   108   am
    16   111   112    1
    17    99   102   ar
    18    99   101   ar
    19   113   112    1
    20   113   114    2
    21   108   109    2
    22   115   112    1
    23   100   101   ar
    24   102   104   ar
    25    90    89   ar
    26   101   103   ar
    27    32    31    1
    28    29    31   ar
    29    29    27   ar
    30    89    91   ar
    31    89    88    1
    32   104   105   ar
    33    31    30   ar
    34    86    87    2
    35    86    85    1
    36   118   119    1
    37   103   105   ar
    38   120   119    1
    39   120   121    2
    40    27    26   ar
    41    85    88    1
    42    85    84    1
    43   150   151    1
    44   119   122    1
    45    30    28   ar
    46   153   152    2
    47   152   151    1
    48   151   154    1
    49    12    11    1
    50   122   123    1
    51   124   123   ar
    52   124   126   ar
    53    26    28   ar
    54    26    25    1
    55   123   125   ar
    56   126   128   ar
    57   156   155   ar
    58   156   158   ar
    59   154   155    1
    60   155   157   ar
    61   158   159   ar
    62    11    10    1
    63    11    13    1
    64    25    22    1
    65   145   144    2
    66   157   159   ar
    67    10     7    1
    68   125   127   ar
    69    22    23    1
    70    22    21    1
    71   128   127   ar
    72   128   129    1
    73   144   143    1
    74    23    24    2
    75   137   136    2
    76   143   146    1
    77   143   142    1
    78   148   146    1
    79   146   147    1
    80     9     8    2
    81    17    16    2
    82    21    16   am
    83     7     8    1
    84     7     6    1
    85    16    15    1
    86     8    14   am
    87   136   142   am
    88   136   135    1
    89     6     3   am
    90   147   149    1
    91    14    15    1
    92    14    20    1
    93    15    18    1
    94   135   138    1
    95   135   134    1
    96     3     2    1
    97     3     4    2
    98   138   139    1
    99   141   139   ar
   100     2     5    1
   101     2     1    1
   102    20    19    1
   103   139   140   ar
   104    18    19    1
   105   133   132    2
   106   185   184    1
   107   132   131    1
   108   130   131    1
   109    56    55   ar
   110    56    54   ar
   111    73    71   ar
   112    55    53   ar
   113   184   183   ar
   114   184   182   ar
   115    54    52   ar
   116    72    71   ar
   117    71    70    1
   118   183   181   ar
   119   182   180   ar
   120    82    83   ar
   121    82    80   ar
   122    83    81   ar
   123    53    52   ar
   124    52    51    1
   125    42    40   ar
   126    42    41   ar
   127    70    69    1
   128    40    38   ar
   129   181   179   ar
   130   180   179   ar
   131    80    79   ar
   132   168   169   ar
   133   168   166   ar
   134    81    79   ar
   135    41    39   ar
   136    51    48    1
   137   163   162    2
   138   169   167   ar
   139   160   161    1
   140   179   178    1
   141   166   165   ar
   142    69    66    1
   143    79    78    1
   144    48    47    1
   145    48    49    1
   146    38    39   ar
   147    38    37    1
   148    33    34    1
   149   167   165   ar
   150   162   161    1
   151   162   170   am
   152   165   164    1
   153    47    45   am
   154   161   164    1
   155    50    49    2
   156   178   175    1
   157    37    34    1
   158    66    67    1
   159    66    65    1
   160    78    75    1
   161    45    46    2
   162    45    44    1
   163    67    74   am
   164    67    68    2
   165    74    75    1
   166   171   172    1
   167   171   170    1
   168    34    35    1
   169   172   173    2
   170   172   174   am
   171    75    76    1
   172   174   175    1
   173   175   176    1
   174   200   199    1
   175    44    43    1
   176    36    35    2
   177    65    59   am
   178   196   195    2
   179    76    77    2
   180   176   186   am
   181   176   177    2
   182   186   187    1
   183   197   194    1
   184   197   198    1
   185   195   194    1
   186    59    60    2
   187    59    58    1
   188   199   198    1
   189   193   194    1
   190    57    58    1
   191   189   188    2
   192    64    62    1
   193    61    58    1
   194    61    62    1
   195    62    63    1
   196   187   188    1
   197   187   190    1
   198   192   190    1
   199   190   191    1
