@<TRIPOS>MOLECULE
tmp/1pg2A00.pdb
 144 143 0 0 0
SMALL
GASTEIGER

@<TRIPOS>ATOM
      1  N          7.2530    9.9910   25.0920 N.3     9  ALA9       -0.1231
      2  CA         8.0490   10.1500   23.8850 C.3     9  ALA9        0.1694
      3  C          8.8330    8.8560   23.6430 C.2     9  ALA9        0.2592
      4  O          9.1910    8.1450   24.5890 O.2     9  ALA9       -0.2718
      5  CB         8.9950   11.3420   24.0370 C.3     9  ALA9        0.0304
      6  N          9.0860    8.5460   22.3770 N.am   10  LEU10      -0.1966
      7  CA         9.8070    7.3250   22.0230 C.3    10  LEU10       0.1713
      8  C         11.3060    7.5750   22.1410 C.2    10  LEU10       0.2458
      9  O         11.8730    8.3720   21.3940 O.2    10  LEU10      -0.2730
     10  CB         9.4370    6.9090   20.5960 C.3    10  LEU10       0.0310
     11  CG         7.9370    6.9810   20.2750 C.3    10  LEU10       0.0022
     12  CD1        7.7130    6.4470   18.8690 C.3    10  LEU10       0.0001
     13  CD2        7.1250    6.1820   21.2870 C.3    10  LEU10       0.0001
     14  N         11.9700    6.9050   23.0980 N.am   11  PRO11      -0.2716
     15  CA        13.4140    7.0880   23.2900 C.3    11  PRO11       0.1536
     16  C         14.2080    6.6250   22.0720 C.2    11  PRO11       0.2598
     17  O         13.8840    5.5920   21.4860 O.2    11  PRO11      -0.2715
     18  CB        13.7280    6.2130   24.5110 C.3    11  PRO11       0.0310
     19  CG        12.3930    5.9890   25.1740 C.3    11  PRO11       0.0237
     20  CD        11.4370    5.8890   24.0210 C.3    11  PRO11       0.0939
     21  N         15.2360    7.3820   21.6890 N.am   12  TYR12      -0.1974
     22  CA        16.0700    6.9860   20.5540 C.3    12  TYR12       0.1639
     23  C         16.8730    5.7540   20.9440 C.2    12  TYR12       0.2290
     24  O         17.3610    5.6550   22.0690 O.2    12  TYR12      -0.2864
     25  CB        17.0510    8.0910   20.1590 C.3    12  TYR12       0.0560
     26  CG        16.5180    9.0900   19.1610 C.ar   12  TYR12      -0.0198
     27  CD1       15.9480    8.6720   17.9520 C.ar   12  TYR12      -0.0009
     28  CD2       16.6100   10.4570   19.4080 C.ar   12  TYR12      -0.0009
     29  CE1       15.4820    9.6000   17.0190 C.ar   12  TYR12       0.0417
     30  CE2       16.1510   11.3860   18.4860 C.ar   12  TYR12       0.0417
     31  CZ        15.5880   10.9560   17.2960 C.ar   12  TYR12       0.1957
     32  OH        15.1300   11.8880   16.3900 O.3    12  TYR12      -0.2866
     33  N         18.4020    7.3470   31.0980 N.3    18  HIS18      -0.1241
     34  CA        18.9760    7.9980   32.2740 C.3    18  HIS18       0.1621
     35  C         17.8710    8.6230   33.1360 C.2    18  HIS18       0.2264
     36  O         16.6870    8.5480   32.7830 O.2    18  HIS18      -0.2867
     37  CB        20.0410    9.0390   31.8740 C.3    18  HIS18       0.0745
     38  CG        19.5790   10.0580   30.8790 C.ar   18  HIS18       0.0817
     39  ND1       18.5490   10.9400   31.1320 N.ar   18  HIS18      -0.2268
     40  CD2       20.0590   10.3880   29.6560 C.ar   18  HIS18       0.1154
     41  CE1       18.4180   11.7680   30.1130 C.ar   18  HIS18       0.1986
     42  NE2       19.3240   11.4550   29.2020 N.ar   18  HIS18      -0.2212
     43  N         16.8970   11.5540   33.5240 N.3    20  GLY20      -0.1210
     44  CA        16.1280   12.5890   32.8580 C.3    20  GLY20       0.1956
     45  C         14.9450   11.9450   32.1510 C.2    20  GLY20       0.2611
     46  O         13.8100   12.4150   32.2530 O.2    20  GLY20      -0.2717
     47  N         15.2100   10.8610   31.4260 N.am   21  HIS21      -0.1975
     48  CA        14.1460   10.1360   30.7360 C.3    21  HIS21       0.1656
     49  C         13.1490    9.6130   31.7610 C.2    21  HIS21       0.2291
     50  O         11.9370    9.6280   31.5280 O.2    21  HIS21      -0.2864
     51  CB        14.6970    8.9280   29.9720 C.3    21  HIS21       0.0771
     52  CG        15.6910    9.2750   28.9130 C.ar   21  HIS21       0.0820
     53  ND1       16.9480    8.7110   28.8620 N.ar   21  HIS21      -0.2267
     54  CD2       15.6100   10.1140   27.8520 C.ar   21  HIS21       0.1154
     55  CE1       17.6000    9.1890   27.8160 C.ar   21  HIS21       0.1986
     56  NE2       16.8100   10.0420   27.1870 N.ar   21  HIS21      -0.2212
     57  N         12.0610   10.8760   34.4790 N.3    23  LEU23      -0.1231
     58  CA        11.1030   11.8450   35.0000 C.3    23  LEU23       0.1693
     59  C          9.8200   11.7430   34.1730 C.2    23  LEU23       0.2592
     60  O          8.7140   11.7280   34.7080 O.2    23  LEU23      -0.2718
     61  CB        11.6430   13.2700   34.8880 C.3    23  LEU23       0.0284
     62  CG        10.6520   14.3640   35.3040 C.3    23  LEU23       0.0019
     63  CD1       10.3930   14.2610   36.8070 C.3    23  LEU23       0.0001
     64  CD2       11.2090   15.7430   34.9580 C.3    23  LEU23       0.0001
     65  N          9.9910   11.6740   32.8620 N.am   24  GLU24      -0.1966
     66  CA         8.8670   11.5970   31.9390 C.3    24  GLU24       0.1733
     67  C          8.0530   10.3190   32.0940 C.2    24  GLU24       0.2616
     68  O          6.8320   10.3640   32.1820 O.2    24  GLU24      -0.2715
     69  CB         9.3820   11.7030   30.5080 C.3    24  GLU24       0.0429
     70  CG         8.3180   11.6050   29.4350 C.3    24  GLU24       0.1163
     71  CD         8.8920   11.8620   28.0610 C.2    24  GLU24       0.3649
     72  OE1        9.3510   13.0000   27.8230 O.co2  24  GLU24      -0.2457
     73  OE2        8.8980   10.9320   27.2270 O.co2  24  GLU24      -0.2457
     74  N          8.7300    9.1780   32.1470 N.am   25  HIS25      -0.1973
     75  CA         8.0190    7.9110   32.2550 C.3    25  HIS25       0.1656
     76  C          7.3380    7.7390   33.6040 C.2    25  HIS25       0.2291
     77  O          6.2400    7.1900   33.6870 O.2    25  HIS25      -0.2864
     78  CB         8.9860    6.7640   31.9390 C.3    25  HIS25       0.0771
     79  CG         9.4220    6.7460   30.5070 C.ar   25  HIS25       0.0820
     80  ND1        8.8700    5.8980   29.5700 N.ar   25  HIS25      -0.2267
     81  CD2       10.2930    7.5350   29.8300 C.ar   25  HIS25       0.1154
     82  CE1        9.3780    6.1650   28.3820 C.ar   25  HIS25       0.1986
     83  NE2       10.2430    7.1550   28.5100 N.ar   25  HIS25      -0.2212
     84  N          8.8300   16.1700   26.5900 N.3   232  GLY232     -0.1225
     85  CA         9.6720   17.2060   27.1600 C.3   232  GLY232      0.1811
     86  C          9.5060   18.4740   26.3370 C.2   232  GLY232      0.2280
     87  O          9.0330   18.4270   25.2010 O.2   232  GLY232     -0.2866
     88  N         11.5620   20.1560   24.7230 N.3   234  ASP234     -0.1225
     89  CA        12.4000   20.2260   23.5270 C.3   234  ASP234      0.1805
     90  C         11.7820   19.6240   22.2570 C.2   234  ASP234      0.2597
     91  O         12.3020   19.8290   21.1590 O.2   234  ASP234     -0.2718
     92  CB        13.7560   19.5660   23.7940 C.3   234  ASP234      0.1424
     93  CG        13.6280   18.1250   24.2320 C.2   234  ASP234      0.3668
     94  OD1       12.7980   17.8460   25.1230 O.co2 234  ASP234     -0.2456
     95  OD2       14.3650   17.2710   23.6930 O.co2 234  ASP234     -0.2456
     96  N         10.6810   18.8920   22.3860 N.am  235  ILE235     -0.1980
     97  CA        10.0530   18.3040   21.2020 C.3   235  ILE235      0.1595
     98  C          8.6010   18.7410   21.0250 C.2   235  ILE235      0.2287
     99  O          7.8050   18.0700   20.3580 O.2   235  ILE235     -0.2864
    100  CB        10.1390   16.7540   21.2340 C.3   235  ILE235      0.0276
    101  CG1        9.4840   16.2000   22.5050 C.3   235  ILE235      0.0022
    102  CG2       11.6000   16.3270   21.1630 C.3   235  ILE235      0.0022
    103  CD1        9.5200   14.6620   22.5860 C.3   235  ILE235      0.0001
    104  N          6.6850   18.5730   30.1740 N.3   261  HIS261     -0.1226
    105  CA         7.4350   18.7030   31.4240 C.3   261  HIS261      0.1752
    106  C          8.7870   19.3560   31.1790 C.2   261  HIS261      0.2597
    107  O          9.2570   19.4290   30.0400 O.2   261  HIS261     -0.2718
    108  CB         7.6780   17.3280   32.0590 C.3   261  HIS261      0.0759
    109  CG         8.5690   16.4490   31.2420 C.ar  261  HIS261      0.0818
    110  ND1        8.0820   15.4840   30.3870 N.ar  261  HIS261     -0.2268
    111  CD2        9.9150   16.4370   31.0930 C.ar  261  HIS261      0.1154
    112  CE1        9.0900   14.9190   29.7470 C.ar  261  HIS261      0.1986
    113  NE2       10.2120   15.4800   30.1570 N.ar  261  HIS261     -0.2212
    114  N          9.4090   19.8170   32.2600 N.am  262  GLY262     -0.1942
    115  CA        10.7110   20.4480   32.1650 C.3   262  GLY262      0.2014
    116  C         11.8410   19.4390   32.2510 C.2   262  GLY262      0.2639
    117  O         11.6220   18.2350   32.1300 O.2   262  GLY262     -0.2714
    118  N         13.0530   19.9260   32.4850 N.am  263  TYR263     -0.1959
    119  CA        14.2210   19.0520   32.5600 C.3   263  TYR263      0.1771
    120  C         14.6230   18.6920   33.9800 C.2   263  TYR263      0.2619
    121  O         14.3260   19.4190   34.9330 O.2   263  TYR263     -0.2715
    122  CB        15.4120   19.7170   31.8640 C.3   263  TYR263      0.0574
    123  CG        15.1960   19.9940   30.3970 C.ar  263  TYR263     -0.0198
    124  CD1       15.9260   20.9830   29.7470 C.ar  263  TYR263     -0.0009
    125  CD2       14.2570   19.2690   29.6560 C.ar  263  TYR263     -0.0009
    126  CE1       15.7290   21.2520   28.3950 C.ar  263  TYR263      0.0417
    127  CE2       14.0510   19.5310   28.3040 C.ar  263  TYR263      0.0417
    128  CZ        14.7900   20.5240   27.6820 C.ar  263  TYR263      0.1957
    129  OH        14.5890   20.8020   26.3480 O.3   263  TYR263     -0.2866
    130  N         15.3040   17.5590   34.1150 N.am  264  VAL264     -0.1977
    131  CA        15.7810   17.1260   35.4190 C.3   264  VAL264      0.1596
    132  C         17.1860   17.6710   35.5780 C.2   264  VAL264      0.2287
    133  O         17.9850   17.6100   34.6490 O.2   264  VAL264     -0.2864
    134  CB        15.8760   15.5850   35.5330 C.3   264  VAL264      0.0276
    135  CG1       16.6710   15.1960   36.7900 C.3   264  VAL264      0.0022
    136  CG2       14.4930   14.9810   35.5980 C.3   264  VAL264      0.0022
    137  N         22.9750   17.3930   34.3570 N.3   271  MET271     -0.1245
    138  CA        23.7450   16.2080   34.7180 C.3   271  MET271      0.1570
    139  C         25.1800   16.3310   34.2120 C.2   271  MET271      0.2261
    140  O         25.4180   16.7910   33.0920 O.2   271  MET271     -0.2867
    141  CB        23.0790   14.9460   34.1650 C.3   271  MET271      0.0387
    142  CG        21.7740   14.5990   34.8760 C.3   271  MET271      0.0595
    143  SD        21.1180   12.9760   34.4210 S.3   271  MET271     -0.1393
    144  CE        20.5950   13.3100   32.7510 C.3   271  MET271      0.0692
@<TRIPOS>BOND
     1    32    31    1
     2    29    31   ar
     3    29    27   ar
     4    31    30   ar
     5    27    26   ar
     6    30    28   ar
     7    12    11    1
     8    26    28   ar
     9    26    25    1
    10    25    22    1
    11    11    10    1
    12    11    13    1
    13    99    98    2
    14    22    23    1
    15    22    21    1
    16    10     7    1
    17    23    24    2
    18    98    97    1
    19    91    90    2
    20   102   100    1
    21    97   100    1
    22    97    96    1
    23   100   101    1
    24     9     8    2
    25    17    16    2
    26    21    16   am
    27     7     8    1
    28     7     6    1
    29    16    15    1
    30     8    14   am
    31    90    96   am
    32    90    89    1
    33     6     3   am
    34   101   103    1
    35    14    15    1
    36    14    20    1
    37    15    18    1
    38    89    92    1
    39    89    88    1
    40     3     2    1
    41     3     4    2
    42    95    93   ar
    43    92    93    1
    44     2     5    1
    45     2     1    1
    46    20    19    1
    47    93    94   ar
    48    18    19    1
    49    87    86    2
    50    86    85    1
    51   129   128    1
    52    84    85    1
    53    56    55   ar
    54    56    54   ar
    55    73    71   ar
    56   128   127   ar
    57   128   126   ar
    58    55    53   ar
    59    72    71   ar
    60    54    52   ar
    61    71    70    1
    62   127   125   ar
    63    82    83   ar
    64    82    80   ar
    65   126   124   ar
    66    83    81   ar
    67    53    52   ar
    68    52    51    1
    69    42    40   ar
    70    42    41   ar
    71    70    69    1
    72    80    79   ar
    73    40    38   ar
    74   125   123   ar
    75   112   113   ar
    76   112   110   ar
    77   124   123   ar
    78    81    79   ar
    79    51    48    1
    80   107   106    2
    81    41    39   ar
    82   113   111   ar
    83   104   105    1
    84   110   109   ar
    85   123   122    1
    86    79    78    1
    87    69    66    1
    88    48    47    1
    89    48    49    1
    90    38    39   ar
    91    38    37    1
    92   111   109   ar
    93    33    34    1
    94   106   105    1
    95   106   114   am
    96   109   108    1
    97   105   108    1
    98    47    45   am
    99    50    49    2
   100   122   119    1
   101    37    34    1
   102    78    75    1
   103    66    67    1
   104    66    65    1
   105    67    74   am
   106    67    68    2
   107   117   116    2
   108    74    75    1
   109    45    46    2
   110    45    44    1
   111   115   116    1
   112   115   114    1
   113   116   118   am
   114    75    76    1
   115    34    35    1
   116   118   119    1
   117   119   120    1
   118   144   143    1
   119    36    35    2
   120    44    43    1
   121    65    59   am
   122   140   139    2
   123    76    77    2
   124   120   130   am
   125   120   121    2
   126   130   131    1
   127   141   138    1
   128   141   142    1
   129    59    60    2
   130    59    58    1
   131   139   138    1
   132   137   138    1
   133   143   142    1
   134    57    58    1
   135   133   132    2
   136    61    58    1
   137    61    62    1
   138    64    62    1
   139    62    63    1
   140   131   134    1
   141   131   132    1
   142   134   136    1
   143   134   135    1
