@<TRIPOS>MOLECULE
tmp/1pg2A01.pdb
 104 104 0 0 0
SMALL
GASTEIGER

@<TRIPOS>ATOM
      1  N          7.2530    9.9910   25.0920 N.3     9  ALA9       -0.1231
      2  CA         8.0490   10.1500   23.8850 C.3     9  ALA9        0.1694
      3  C          8.8330    8.8560   23.6430 C.2     9  ALA9        0.2592
      4  O          9.1910    8.1450   24.5890 O.2     9  ALA9       -0.2718
      5  CB         8.9950   11.3420   24.0370 C.3     9  ALA9        0.0304
      6  N          9.0860    8.5460   22.3770 N.am   10  LEU10      -0.1966
      7  CA         9.8070    7.3250   22.0230 C.3    10  LEU10       0.1713
      8  C         11.3060    7.5750   22.1410 C.2    10  LEU10       0.2458
      9  O         11.8730    8.3720   21.3940 O.2    10  LEU10      -0.2730
     10  CB         9.4370    6.9090   20.5960 C.3    10  LEU10       0.0310
     11  CG         7.9370    6.9810   20.2750 C.3    10  LEU10       0.0022
     12  CD1        7.7130    6.4470   18.8690 C.3    10  LEU10       0.0001
     13  CD2        7.1250    6.1820   21.2870 C.3    10  LEU10       0.0001
     14  N         11.9700    6.9050   23.0980 N.am   11  PRO11      -0.2716
     15  CA        13.4140    7.0880   23.2900 C.3    11  PRO11       0.1536
     16  C         14.2080    6.6250   22.0720 C.2    11  PRO11       0.2598
     17  O         13.8840    5.5920   21.4860 O.2    11  PRO11      -0.2715
     18  CB        13.7280    6.2130   24.5110 C.3    11  PRO11       0.0310
     19  CG        12.3930    5.9890   25.1740 C.3    11  PRO11       0.0237
     20  CD        11.4370    5.8890   24.0210 C.3    11  PRO11       0.0939
     21  N         15.2360    7.3820   21.6890 N.am   12  TYR12      -0.1974
     22  CA        16.0700    6.9860   20.5540 C.3    12  TYR12       0.1639
     23  C         16.8730    5.7540   20.9440 C.2    12  TYR12       0.2290
     24  O         17.3610    5.6550   22.0690 O.2    12  TYR12      -0.2864
     25  CB        17.0510    8.0910   20.1590 C.3    12  TYR12       0.0560
     26  CG        16.5180    9.0900   19.1610 C.ar   12  TYR12      -0.0198
     27  CD1       15.9480    8.6720   17.9520 C.ar   12  TYR12      -0.0009
     28  CD2       16.6100   10.4570   19.4080 C.ar   12  TYR12      -0.0009
     29  CE1       15.4820    9.6000   17.0190 C.ar   12  TYR12       0.0417
     30  CE2       16.1510   11.3860   18.4860 C.ar   12  TYR12       0.0417
     31  CZ        15.5880   10.9560   17.2960 C.ar   12  TYR12       0.1957
     32  OH        15.1300   11.8880   16.3900 O.3    12  TYR12      -0.2866
     33  N         12.5110    4.6980   19.2550 N.3    49  ASP49      -0.1239
     34  CA        12.5970    5.4760   18.0160 C.3    49  ASP49       0.1674
     35  C         13.8810    4.9150   17.4070 C.2    49  ASP49       0.2266
     36  O         14.9770    5.2910   17.8110 O.2    49  ASP49      -0.2867
     37  CB        12.7740    6.9630   18.3490 C.3    49  ASP49       0.1410
     38  CG        12.5690    7.8670   17.1450 C.2    49  ASP49       0.3668
     39  OD1       12.6000    7.3690   16.0020 O.co2  49  ASP49      -0.2456
     40  OD2       12.3890    9.0840   17.3480 O.co2  49  ASP49      -0.2456
     41  N         11.7550   11.8960   11.8630 N.3   191  TRP191     -0.1241
     42  CA        10.7060   12.5940   12.5950 C.3   191  TRP191      0.1605
     43  C          9.3220   12.5220   11.9690 C.2   191  TRP191      0.2264
     44  O          8.3380   12.9340   12.5820 O.2   191  TRP191     -0.2867
     45  CB        11.1000   14.0510   12.8470 C.3   191  TRP191      0.0550
     46  CG        11.7470   14.2430   14.1880 C.ar  191  TRP191      0.0003
     47  CD1       13.0620   14.5140   14.4420 C.ar  191  TRP191      0.0946
     48  CD2       11.0930   14.1880   15.4600 C.ar  191  TRP191      0.0152
     49  NE1       13.2660   14.6370   15.7980 N.ar  191  TRP191     -0.2442
     50  CE2       12.0740   14.4400   16.4450 C.ar  191  TRP191      0.0810
     51  CE3        9.7730   13.9520   15.8640 C.ar  191  TRP191      0.0012
     52  CZ2       11.7740   14.4640   17.8100 C.ar  191  TRP191      0.0191
     53  CZ3        9.4730   13.9760   17.2220 C.ar  191  TRP191      0.0001
     54  CH2       10.4700   14.2300   18.1780 C.ar  191  TRP191      0.0015
     55  N          8.4250    8.7550   13.2970 N.3   194  ALA194     -0.1231
     56  CA         8.5010    8.6220   14.7540 C.3   194  ALA194      0.1679
     57  C          7.1540    8.7940   15.4660 C.2   194  ALA194      0.2434
     58  O          6.7220    7.8990   16.1890 O.2   194  ALA194     -0.2733
     59  CB         9.5380    9.5980   15.3270 C.3   194  ALA194      0.0304
     60  N          6.4720    9.9430   15.2830 N.am  195  PRO195     -0.2729
     61  CA         5.1870   10.0580   15.9800 C.3   195  PRO195      0.1401
     62  C          4.1730    9.0350   15.4610 C.2   195  PRO195      0.2269
     63  O          3.2810    8.6170   16.1900 O.2   195  PRO195     -0.2865
     64  CB         4.7690   11.5040   15.7090 C.3   195  PRO195      0.0296
     65  CG         5.3710   11.7810   14.3690 C.3   195  PRO195      0.0237
     66  CD         6.7450   11.1420   14.4720 C.3   195  PRO195      0.0939
     67  N          3.5190    6.0290   17.4540 N.3   198  TYR198     -0.1241
     68  CA         2.5310    5.9440   18.5300 C.3   198  TYR198      0.1605
     69  C          1.3930    5.0770   18.0030 C.2   198  TYR198      0.2264
     70  O          0.8950    4.1880   18.6910 O.2   198  TYR198     -0.2867
     71  CB         1.9580    7.3220   18.8660 C.3   198  TYR198      0.0534
     72  CG         2.9150    8.2700   19.5350 C.ar  198  TYR198     -0.0201
     73  CD1        2.9860    9.6000   19.1310 C.ar  198  TYR198     -0.0009
     74  CD2        3.7120    7.8560   20.6010 C.ar  198  TYR198     -0.0009
     75  CE1        3.8170   10.5030   19.7680 C.ar  198  TYR198      0.0417
     76  CE2        4.5580    8.7560   21.2510 C.ar  198  TYR198      0.0417
     77  CZ         4.5990   10.0770   20.8270 C.ar  198  TYR198      0.1957
     78  OH         5.4010   10.9910   21.4570 O.3   198  TYR198     -0.2866
     79  N         11.5620   20.1560   24.7230 N.3   234  ASP234     -0.1225
     80  CA        12.4000   20.2260   23.5270 C.3   234  ASP234      0.1805
     81  C         11.7820   19.6240   22.2570 C.2   234  ASP234      0.2597
     82  O         12.3020   19.8290   21.1590 O.2   234  ASP234     -0.2718
     83  CB        13.7560   19.5660   23.7940 C.3   234  ASP234      0.1424
     84  CG        13.6280   18.1250   24.2320 C.2   234  ASP234      0.3668
     85  OD1       12.7980   17.8460   25.1230 O.co2 234  ASP234     -0.2456
     86  OD2       14.3650   17.2710   23.6930 O.co2 234  ASP234     -0.2456
     87  N         10.6810   18.8920   22.3860 N.am  235  ILE235     -0.1980
     88  CA        10.0530   18.3040   21.2020 C.3   235  ILE235      0.1595
     89  C          8.6010   18.7410   21.0250 C.2   235  ILE235      0.2287
     90  O          7.8050   18.0700   20.3580 O.2   235  ILE235     -0.2864
     91  CB        10.1390   16.7540   21.2340 C.3   235  ILE235      0.0276
     92  CG1        9.4840   16.2000   22.5050 C.3   235  ILE235      0.0022
     93  CG2       11.6000   16.3270   21.1630 C.3   235  ILE235      0.0022
     94  CD1        9.5200   14.6620   22.5860 C.3   235  ILE235      0.0001
     95  N          5.2340   17.8790   18.1160 N.3   239  HIS239     -0.1241
     96  CA         3.9790   17.3810   18.6630 C.3   239  HIS239      0.1621
     97  C          2.7900   18.3380   18.6210 C.2   239  HIS239      0.2264
     98  O          1.6470   17.8930   18.6550 O.2   239  HIS239     -0.2867
     99  CB         4.1990   16.9130   20.1120 C.3   239  HIS239      0.0745
    100  CG         5.0290   15.6690   20.2270 C.ar  239  HIS239      0.0817
    101  ND1        4.4760   14.4170   20.3870 N.ar  239  HIS239     -0.2268
    102  CD2        6.3690   15.4850   20.1650 C.ar  239  HIS239      0.1154
    103  CE1        5.4410   13.5120   20.4150 C.ar  239  HIS239      0.1986
    104  NE2        6.5980   14.1330   20.2810 N.ar  239  HIS239     -0.2212
@<TRIPOS>BOND
     1    41    42    1
     2    43    44    2
     3    43    42    1
     4    42    45    1
     5    45    46    1
     6    55    56    1
     7    46    47   ar
     8    46    48   ar
     9    65    66    1
    10    65    64    1
    11    47    49   ar
    12    66    60    1
    13    56    59    1
    14    56    57    1
    15    60    57   am
    16    60    61    1
    17    48    51   ar
    18    48    50   ar
    19    62    61    1
    20    62    63    2
    21    57    58    2
    22    64    61    1
    23    49    50   ar
    24    51    53   ar
    25    39    38   ar
    26    32    31    1
    27    50    52   ar
    28    29    31   ar
    29    29    27   ar
    30    38    40   ar
    31    38    37    1
    32    53    54   ar
    33    31    30   ar
    34    35    36    2
    35    35    34    1
    36    67    68    1
    37    52    54   ar
    38    27    26   ar
    39    69    68    1
    40    69    70    2
    41    34    37    1
    42    34    33    1
    43    95    96    1
    44    30    28   ar
    45    68    71    1
    46    97    98    2
    47    97    96    1
    48    96    99    1
    49    71    72    1
    50    12    11    1
    51    73    72   ar
    52    73    75   ar
    53    26    28   ar
    54    26    25    1
    55    72    74   ar
    56    75    77   ar
    57    99   100    1
    58    25    22    1
    59   102   100   ar
    60   102   104   ar
    61   100   101   ar
    62    11    10    1
    63    11    13    1
    64   104   103   ar
    65    90    89    2
    66   101   103   ar
    67    22    23    1
    68    22    21    1
    69    10     7    1
    70    74    76   ar
    71    77    76   ar
    72    77    78    1
    73    23    24    2
    74    89    88    1
    75    82    81    2
    76    93    91    1
    77    88    91    1
    78    88    87    1
    79    91    92    1
    80     9     8    2
    81    17    16    2
    82    21    16   am
    83     7     8    1
    84     7     6    1
    85    16    15    1
    86     8    14   am
    87    81    87   am
    88    81    80    1
    89     6     3   am
    90    92    94    1
    91    14    15    1
    92    14    20    1
    93    15    18    1
    94    80    83    1
    95    80    79    1
    96     3     2    1
    97     3     4    2
    98    86    84   ar
    99    83    84    1
   100     2     5    1
   101     2     1    1
   102    20    19    1
   103    84    85   ar
   104    18    19    1
