@<TRIPOS>MOLECULE
tmp/1pg8B02.pdb
 102 101 0 0 0
SMALL
GASTEIGER

@<TRIPOS>ATOM
      1  N         11.4750   13.1350   13.1780 N.3    18  GLY18      -0.1210
      2  CA        12.0610   12.4040   14.2900 C.3    18  GLY18       0.1956
      3  C         11.1310   12.1410   15.4630 C.2    18  GLY18       0.2611
      4  O         11.5880   11.7270   16.4950 O.2    18  GLY18      -0.2717
      5  N          9.8410   12.4050   15.3060 N.am   19  TYR19      -0.1976
      6  CA         8.8640   12.3310   16.4030 C.3    19  TYR19       0.1639
      7  C          7.5050   11.8540   15.9430 C.2    19  TYR19       0.2290
      8  O          6.8770   12.4940   15.1010 O.2    19  TYR19      -0.2864
      9  CB         8.6800   13.7050   17.0570 C.3    19  TYR19       0.0560
     10  CG         7.7970   13.6560   18.2900 C.ar   19  TYR19      -0.0198
     11  CD1        8.2230   12.9770   19.4110 C.ar   19  TYR19      -0.0009
     12  CD2        6.5600   14.2980   18.3460 C.ar   19  TYR19      -0.0009
     13  CE1        7.4510   12.9150   20.5630 C.ar   19  TYR19       0.0417
     14  CE2        5.7800   14.2460   19.5020 C.ar   19  TYR19       0.0417
     15  CZ         6.2510   13.5510   20.6050 C.ar   19  TYR19       0.1957
     16  OH         5.5590   13.4290   21.7710 O.3    19  TYR19      -0.2866
     17  N          4.8980    8.3820   22.9480 N.3    24  HIS24      -0.1241
     18  CA         4.9670    9.1290   24.2010 C.3    24  HIS24       0.1621
     19  C          3.5740    9.4720   24.6490 C.2    24  HIS24       0.2264
     20  O          3.2750   10.6150   24.9000 O.2    24  HIS24      -0.2867
     21  CB         5.7650   10.4330   24.0730 C.3    24  HIS24       0.0745
     22  CG         7.1170   10.2670   23.4620 C.ar   24  HIS24       0.0817
     23  ND1        8.0940   11.2220   23.5980 N.ar   24  HIS24      -0.2268
     24  CD2        7.6590    9.2860   22.6950 C.ar   24  HIS24       0.1154
     25  CE1        9.1760   10.8360   22.9400 C.ar   24  HIS24       0.1986
     26  NE2        8.9390    9.6650   22.3810 N.ar   24  HIS24      -0.2212
     27  N          6.4580   16.9850   22.1610 N.2    30  PRO30      -0.2571
     28  CA         7.2460   16.0300   22.9490 C.3    30  PRO30       0.2012
     29  C          7.5130   16.5840   24.3360 C.2    30  PRO30       0.2525
     30  O          7.6740   17.7760   24.4840 O.2    30  PRO30      -0.2724
     31  CB         8.5520   15.8820   22.1720 C.2    30  PRO30       0.0085
     32  CG         8.4260   16.6920   20.8890 C.2    30  PRO30       0.0180
     33  CD         7.1450   17.4330   20.9290 C.2    30  PRO30       0.0938
     34  N          7.5150   15.7300   25.3360 N.am   31  PRO31      -0.2711
     35  CA         7.8170   16.1770   26.6780 C.3    31  PRO31       0.1536
     36  C          9.2650   16.5050   26.7770 C.2    31  PRO31       0.2598
     37  O         10.0900   15.9220   26.0720 O.2    31  PRO31      -0.2715
     38  CB         7.4670   14.9730   27.5540 C.3    31  PRO31       0.0310
     39  CG         7.4430   13.8220   26.6500 C.3    31  PRO31       0.0237
     40  CD         7.1390   14.3060   25.2890 C.3    31  PRO31       0.0940
     41  N          9.5530   17.3910   27.7060 N.am   32  VAL32      -0.1964
     42  CA        10.8420   17.9500   27.8780 C.3    32  VAL32       0.1727
     43  C         11.5380   17.1230   28.9420 C.2    32  VAL32       0.2616
     44  O         10.9970   16.8560   30.0110 O.2    32  VAL32      -0.2715
     45  CB        10.7110   19.4060   28.3140 C.3    32  VAL32       0.0290
     46  CG1       12.0760   20.0580   28.5250 C.3    32  VAL32       0.0023
     47  CG2        9.8860   20.1900   27.2960 C.3    32  VAL32       0.0023
     48  N         12.7500   16.7120   28.6440 N.am   33  TYR33      -0.1974
     49  CA        13.4250   15.7130   29.4370 C.3    33  TYR33       0.1639
     50  C         14.4220   16.4380   30.2640 C.2    33  TYR33       0.2290
     51  O         15.5920   16.3600   30.0020 O.2    33  TYR33      -0.2864
     52  CB        14.0910   14.6680   28.5340 C.3    33  TYR33       0.0560
     53  CG        13.1920   13.5100   28.2730 C.ar   33  TYR33      -0.0198
     54  CD1       12.2820   13.5390   27.2360 C.ar   33  TYR33      -0.0009
     55  CD2       13.2310   12.3900   29.0780 C.ar   33  TYR33      -0.0009
     56  CE1       11.4450   12.4800   26.9990 C.ar   33  TYR33       0.0417
     57  CE2       12.3960   11.3120   28.8410 C.ar   33  TYR33       0.0417
     58  CZ        11.5030   11.3730   27.8170 C.ar   33  TYR33       0.1957
     59  OH        10.6700   10.3060   27.5970 O.3    33  TYR33      -0.2866
     60  N         17.1650   12.8320   25.3310 N.3    65  PRO65      -0.2102
     61  CA        16.1940   12.6350   24.2330 C.3    65  PRO65       0.1504
     62  C         15.6350   13.9060   23.6580 C.2    65  PRO65       0.2576
     63  O         15.3400   13.9350   22.4480 O.2    65  PRO65      -0.2718
     64  CB        15.0460   11.8090   24.8690 C.3    65  PRO65       0.0282
     65  CG        15.5620   11.3110   26.1500 C.3    65  PRO65       0.0208
     66  CD        16.7020   12.2250   26.5970 C.3    65  PRO65       0.0893
     67  N         15.4640   14.9350   24.5000 N.am   66  THR66      -0.1953
     68  CA        15.0400   16.2480   23.9710 C.3    66  THR66       0.1897
     69  C         16.0560   16.8310   23.0170 C.2    66  THR66       0.2313
     70  O         15.6810   17.3860   21.9860 O.2    66  THR66      -0.2863
     71  CB        14.7210   17.2750   25.0590 C.3    66  THR66       0.1794
     72  OG1       13.6360   16.8200   25.8510 O.3    66  THR66      -0.2208
     73  CG2       14.1680   18.5100   24.4560 C.3    66  THR66       0.0378
     74  N         18.3030   14.9690   21.5090 N.3    68  ASN68      -0.1225
     75  CA        18.4400   14.0680   20.4070 C.3    68  ASN68       0.1785
     76  C         17.4000   14.4310   19.3210 C.2    68  ASN68       0.2597
     77  O         17.7030   14.4350   18.1440 O.2    68  ASN68      -0.2718
     78  CB        18.2870   12.6240   20.8530 C.3    68  ASN68       0.1169
     79  CG        19.4540   12.1230   21.6920 C.2    68  ASN68       0.2627
     80  OD1       19.2920   11.1040   22.3510 O.2    68  ASN68      -0.2716
     81  ND2       20.6320   12.8220   21.6920 N.am   68  ASN68      -0.0877
     82  N         16.1950   14.7730   19.7130 N.am   69  LEU69      -0.1980
     83  CA        15.1860   15.1660   18.7380 C.3    69  LEU69       0.1596
     84  C         15.6170   16.3950   17.9590 C.2    69  LEU69       0.2287
     85  O         15.5910   16.3910   16.7570 O.2    69  LEU69      -0.2864
     86  CB        13.8340   15.4300   19.4160 C.3    69  LEU69       0.0297
     87  CG        12.6700   15.6210   18.4500 C.3    69  LEU69       0.0022
     88  CD1       12.5910   14.3870   17.5040 C.3    69  LEU69       0.0001
     89  CD2       11.3490   15.9110   19.1640 C.3    69  LEU69       0.0001
     90  N         14.1610   22.7930   23.8360 N.3   253  ALA253     -0.1245
     91  CA        12.7090   22.7750   23.4910 C.3   253  ALA253      0.1562
     92  C         12.2030   24.0900   22.9460 C.2   253  ALA253      0.2260
     93  O         11.3370   24.0750   22.0760 O.2   253  ALA253     -0.2867
     94  CB        11.8100   22.3510   24.7040 C.3   253  ALA253      0.0290
     95  N         13.5320   24.0150   19.2900 N.3   256  MET256     -0.1245
     96  CA        12.6290   23.2260   18.4320 C.3   256  MET256      0.1570
     97  C         11.3630   24.0090   18.1240 C.2   256  MET256      0.2261
     98  O         10.8510   23.9450   17.0070 O.2   256  MET256     -0.2867
     99  CB        12.3110   21.8390   19.0250 C.3   256  MET256      0.0387
    100  CG        13.5040   20.8990   18.9950 C.3   256  MET256      0.0595
    101  SD        13.0700   19.1930   19.1890 S.3   256  MET256     -0.1393
    102  CE        13.1270   19.1000   20.9480 C.3   256  MET256      0.0692
@<TRIPOS>BOND
     1     1     2    1
     2     2     3    1
     3     8     7    2
     4     5     3   am
     5     5     6    1
     6     3     4    2
     7     7     6    1
     8     6     9    1
     9    85    84    2
    10    98    97    2
    11     9    10    1
    12    88    87    1
    13    84    83    1
    14    97    96    1
    15    77    76    2
    16    10    12   ar
    17    10    11   ar
    18    12    14   ar
    19    96    99    1
    20    96    95    1
    21    87    89    1
    22    87    86    1
    23    83    86    1
    24    83    82    1
    25   100    99    1
    26   100   101    1
    27   101   102    1
    28    76    82   am
    29    76    75    1
    30    11    13   ar
    31    14    15   ar
    32    75    78    1
    33    75    74    1
    34    13    15   ar
    35    15    16    1
    36    78    79    1
    37    32    33    1
    38    32    31    2
    39    33    27    2
    40    81    79   am
    41    79    80    2
    42    70    69    2
    43    93    92    2
    44    27    28    1
    45    31    28    1
    46    26    24   ar
    47    26    25   ar
    48    63    62    2
    49    24    22   ar
    50    25    23   ar
    51    92    91    1
    52    17    18    1
    53    28    29    1
    54    69    68    1
    55    22    23   ar
    56    22    21    1
    57    91    90    1
    58    91    94    1
    59    62    61    1
    60    62    67   am
    61    68    67    1
    62    68    71    1
    63    21    18    1
    64    18    19    1
    65    61    64    1
    66    61    60    1
    67    29    30    2
    68    29    34   am
    69    73    71    1
    70    19    20    2
    71    64    65    1
    72    71    72    1
    73    40    34    1
    74    40    39    1
    75    60    66    1
    76    34    35    1
    77    37    36    2
    78    65    66    1
    79    39    38    1
    80    35    36    1
    81    35    38    1
    82    36    41   am
    83    56    54   ar
    84    56    58   ar
    85    54    53   ar
    86    47    45    1
    87    59    58    1
    88    41    42    1
    89    58    57   ar
    90    42    45    1
    91    42    43    1
    92    53    52    1
    93    53    55   ar
    94    45    46    1
    95    52    49    1
    96    48    43   am
    97    48    49    1
    98    57    55   ar
    99    43    44    2
   100    49    50    1
   101    51    50    2
