@<TRIPOS>MOLECULE
tmp/1pg8A06.pdb
 90 86 0 0 0
SMALL
GASTEIGER

@<TRIPOS>ATOM
      1  N        -16.8710   28.0800   58.4940 N.3   110  GLY110     -0.1210
      2  CA       -16.1480   28.4810   59.6700 C.3   110  GLY110      0.1956
      3  C        -16.2440   29.9830   59.8560 C.2   110  GLY110      0.2612
      4  O        -16.4080   30.6920   58.8870 O.2   110  GLY110     -0.2717
      5  N        -16.1010   30.4460   61.0960 N.am  111  ASN111     -0.1960
      6  CA       -16.4120   31.8140   61.4820 C.3   111  ASN111      0.1819
      7  C        -15.5130   32.8630   60.8510 C.2   111  ASN111      0.2622
      8  O        -15.9890   33.8870   60.4290 O.2   111  ASN111     -0.2715
      9  CB       -16.4250   31.9420   63.0220 C.3   111  ASN111      0.1195
     10  CG       -17.8200   32.2820   63.5800 C.2   111  ASN111      0.2630
     11  OD1      -18.8460   32.0860   62.9230 O.2   111  ASN111     -0.2716
     12  ND2      -17.8520   32.7890   64.8040 N.am  111  ASN111     -0.0877
     13  N        -14.2170   32.6120   60.7710 N.am  112  THR112     -0.1937
     14  CA       -13.3580   33.4350   59.9190 C.3   112  THR112      0.2028
     15  C        -12.8930   32.6200   58.7200 C.2   112  THR112      0.2642
     16  O        -12.9420   31.3850   58.7110 O.2   112  THR112     -0.2714
     17  CB       -12.1630   33.9200   60.6810 C.3   112  THR112      0.1808
     18  OG1      -11.5090   32.8000   61.2870 O.3   112  THR112     -0.2208
     19  CG2      -12.5930   34.8220   61.8730 C.3   112  THR112      0.0379
     20  N        -12.4470   33.3290   57.6980 N.am  113  LEU113     -0.1977
     21  CA       -12.0390   32.6960   56.4670 C.3   113  LEU113      0.1596
     22  C        -11.0270   33.5400   55.7560 C.2   113  LEU113      0.2287
     23  O        -10.8810   34.7140   56.0260 O.2   113  LEU113     -0.2864
     24  CB       -13.2330   32.5160   55.5570 C.3   113  LEU113      0.0297
     25  CG       -14.2780   31.4530   55.9000 C.3   113  LEU113      0.0022
     26  CD1      -15.4440   31.5900   54.9220 C.3   113  LEU113      0.0001
     27  CD2      -13.7240   30.0670   55.8370 C.3   113  LEU113      0.0001
     28  N        -20.5640   29.5880   61.6100 N.3   135  VAL135     -0.1231
     29  CA       -20.6810   28.8430   62.8720 C.3   135  VAL135      0.1692
     30  C        -19.2970   28.5850   63.4590 C.2   135  VAL135      0.2592
     31  O        -18.3490   28.2980   62.7290 O.2   135  VAL135     -0.2718
     32  CB       -21.3300   27.4640   62.6450 C.3   135  VAL135      0.0266
     33  CG1      -21.6440   26.8190   63.9700 C.3   135  VAL135      0.0020
     34  CG2      -22.6010   27.6080   61.8380 C.3   135  VAL135      0.0020
     35  N        -19.1850   28.6490   64.7750 N.am  136  ASP136     -0.1960
     36  CA       -17.9510   28.2750   65.4470 C.3   136  ASP136      0.1840
     37  C        -17.7650   26.7620   65.3780 C.2   136  ASP136      0.2621
     38  O        -18.5180   26.0230   65.9950 O.2   136  ASP136     -0.2715
     39  CB       -17.9460   28.7290   66.8990 C.3   136  ASP136      0.1450
     40  CG       -16.5730   28.6300   67.5080 C.2   136  ASP136      0.3671
     41  OD1      -15.7160   27.9070   66.8970 O.co2 136  ASP136     -0.2456
     42  OD2      -16.2640   29.2600   68.5550 O.co2 136  ASP136     -0.2456
     43  N        -16.7550   26.3240   64.6280 N.am  137  MET137     -0.1977
     44  CA       -16.5530   24.9310   64.2950 C.3   137  MET137      0.1605
     45  C        -15.7850   24.2510   65.3930 C.2   137  MET137      0.2287
     46  O        -15.6340   23.0210   65.3720 O.2   137  MET137     -0.2864
     47  CB       -15.8010   24.7760   62.9890 C.3   137  MET137      0.0413
     48  CG       -16.5430   25.3260   61.7820 C.3   137  MET137      0.0598
     49  SD       -17.8080   24.2600   61.1910 S.3   137  MET137     -0.1393
     50  CE       -18.5570   25.2420   59.9500 C.3   137  MET137      0.0692
     51  N        -14.3250   24.8230   56.1440 N.3   156  PHE156     -0.1227
     52  CA       -13.5250   25.5800   57.0630 C.3   156  PHE156      0.1736
     53  C        -12.0400   25.3100   56.8540 C.2   156  PHE156      0.2595
     54  O        -11.6690   24.3520   56.2000 O.2   156  PHE156     -0.2718
     55  CB       -13.8960   25.2670   58.5180 C.3   156  PHE156      0.0547
     56  CG       -13.6530   23.8250   58.9320 C.ar  156  PHE156     -0.0202
     57  CD1      -14.6430   22.8780   58.7790 C.ar  156  PHE156     -0.0042
     58  CD2      -12.4560   23.4440   59.5190 C.ar  156  PHE156     -0.0042
     59  CE1      -14.4250   21.5610   59.1490 C.ar  156  PHE156     -0.0003
     60  CE2      -12.2260   22.1600   59.9040 C.ar  156  PHE156     -0.0003
     61  CZ       -13.2020   21.1980   59.7180 C.ar  156  PHE156     -0.0000
     62  N        -11.2340   26.1840   57.4420 N.am  157  GLU157     -0.1979
     63  CA        -9.7980   26.1120   57.5120 C.3   157  GLU157      0.1602
     64  C         -9.4300   25.6960   58.9550 C.2   157  GLU157      0.2287
     65  O        -10.1750   25.9830   59.9030 O.2   157  GLU157     -0.2864
     66  CB        -9.1760   27.5080   57.2010 C.3   157  GLU157      0.0415
     67  CG        -9.5330   28.0670   55.8410 C.3   157  GLU157      0.1163
     68  CD        -9.5790   29.6170   55.7440 C.2   157  GLU157      0.3649
     69  OE1       -8.8640   30.3720   56.4720 O.co2 157  GLU157     -0.2457
     70  OE2      -10.3200   30.0910   54.8730 O.co2 157  GLU157     -0.2457
     71  N         -7.2960   28.5880   61.1000 N.3   160  ALA160     -0.1245
     72  CA        -8.0630   29.4620   60.2380 C.3   160  ALA160      0.1562
     73  C         -7.3470   30.7430   60.1090 C.2   160  ALA160      0.2260
     74  O         -6.7780   31.2510   61.0730 O.2   160  ALA160     -0.2867
     75  CB        -9.4290   29.7340   60.7870 C.3   160  ALA160      0.0290
     76  N         -7.4910   30.1670   64.7530 N.3   165  HIS165     -0.1241
     77  CA        -8.5830   29.4360   65.3610 C.3   165  HIS165      0.1621
     78  C         -8.7610   28.0620   64.7090 C.2   165  HIS165      0.2264
     79  O         -8.7530   27.9250   63.4830 O.2   165  HIS165     -0.2867
     80  CB        -9.8800   30.2500   65.2780 C.3   165  HIS165      0.0745
     81  CG       -10.9490   29.7630   66.2100 C.ar  165  HIS165      0.0817
     82  ND1      -11.8280   28.7520   65.8740 N.ar  165  HIS165     -0.2268
     83  CD2      -11.2650   30.1300   67.4770 C.ar  165  HIS165      0.1154
     84  CE1      -12.6460   28.5270   66.8860 C.ar  165  HIS165      0.1986
     85  NE2      -12.3190   29.3410   67.8750 N.ar  165  HIS165     -0.2212
     86  N        -10.5940   23.9670   64.5840 N.3   167  ALA167     -0.1245
     87  CA       -11.8210   23.1870   64.6600 C.3   167  ALA167      0.1562
     88  C        -11.5000   21.6810   64.8680 C.2   167  ALA167      0.2260
     89  O        -10.4990   21.1880   64.4180 O.2   167  ALA167     -0.2867
     90  CB       -12.6240   23.4140   63.3870 C.3   167  ALA167      0.0290
@<TRIPOS>BOND
     1    70    68   ar
     2    26    25    1
     3    24    25    1
     4    24    21    1
     5    68    67    1
     6    68    69   ar
     7    22    23    2
     8    22    21    1
     9    27    25    1
    10    67    66    1
    11    51    52    1
    12    54    53    2
    13    21    20    1
    14    53    52    1
    15    53    62   am
    16    52    55    1
    17    66    63    1
    18    62    63    1
    19    63    64    1
    20    20    15   am
    21     1     2    1
    22    55    56    1
    23    16    15    2
    24    15    14    1
    25    57    56   ar
    26    57    59   ar
    27     4     3    2
    28    56    58   ar
    29    64    65    2
    30    59    61   ar
    31    58    60   ar
    32     2     3    1
    33    61    60   ar
    34     3     5   am
    35    14    17    1
    36    14    13    1
    37    50    49    1
    38    73    72    1
    39    73    74    2
    40    72    75    1
    41    72    71    1
    42     8     7    2
    43    17    18    1
    44    17    19    1
    45    13     7   am
    46     7     6    1
    47     5     6    1
    48    49    48    1
    49     6     9    1
    50    28    29    1
    51    48    47    1
    52    34    32    1
    53    32    29    1
    54    32    33    1
    55    31    30    2
    56    29    30    1
    57    11    10    2
    58    47    44    1
    59     9    10    1
    60    90    87    1
    61    30    35   am
    62    79    78    2
    63    10    12   am
    64    44    43    1
    65    44    45    1
    66    89    88    2
    67    86    87    1
    68    43    37   am
    69    87    88    1
    70    78    77    1
    71    76    77    1
    72    35    36    1
    73    80    77    1
    74    80    81    1
    75    46    45    2
    76    37    36    1
    77    37    38    2
    78    36    39    1
    79    82    81   ar
    80    82    84   ar
    81    81    83   ar
    82    84    85   ar
    83    41    40   ar
    84    39    40    1
    85    83    85   ar
    86    40    42   ar
