@<TRIPOS>MOLECULE
tmp/1pg8D00.pdb
 137 126 0 0 0
SMALL
GASTEIGER

@<TRIPOS>ATOM
      1  N         27.9220   23.4700   32.7520 N.3    88  SER88      -0.1202
      2  CA        28.1670   22.2090   33.4620 C.3    88  SER88       0.2020
      3  C         29.3840   22.2760   34.3790 C.2    88  SER88       0.2619
      4  O         30.1750   23.2250   34.3340 O.2    88  SER88      -0.2717
      5  CB        28.3840   21.0310   32.4840 C.3    88  SER88       0.2103
      6  OG        29.5810   21.1600   31.7090 O.3    88  SER88      -0.2182
      7  N         29.5110   21.2480   35.2100 N.am   89  GLY89      -0.1942
      8  CA        30.7440   21.0000   35.9540 C.3    89  GLY89       0.2014
      9  C         31.9910   21.0230   35.0760 C.2    89  GLY89       0.2638
     10  O         32.9210   21.7840   35.3410 O.2    89  GLY89      -0.2714
     11  N         31.9800   20.2570   33.9920 N.am   90  MET90      -0.1976
     12  CA        33.1190   20.1910   33.0880 C.3    90  MET90       0.1605
     13  C         33.3710   21.5320   32.4440 C.2    90  MET90       0.2287
     14  O         34.5090   21.8880   32.1750 O.2    90  MET90      -0.2864
     15  CB        32.8940   19.1470   32.0230 C.3    90  MET90       0.0413
     16  CG        32.9170   17.7340   32.5970 C.3    90  MET90       0.0598
     17  SD        34.4520   17.3580   33.4770 S.3    90  MET90      -0.1393
     18  CE        35.6230   17.5520   32.0210 C.3    90  MET90       0.0692
     19  N         35.4220   23.3850   34.9780 N.3    93  ILE93      -0.1245
     20  CA        36.7830   22.8550   35.0160 C.3    93  ILE93       0.1561
     21  C         37.5680   23.1880   33.7340 C.2    93  ILE93       0.2260
     22  O         38.6640   23.7290   33.8090 O.2    93  ILE93      -0.2867
     23  CB        36.7280   21.3790   35.2640 C.3    93  ILE93       0.0252
     24  CG1       36.2510   21.1590   36.6930 C.3    93  ILE93       0.0019
     25  CG2       38.0740   20.7080   35.0290 C.3    93  ILE93       0.0019
     26  CD1       35.5700   19.8400   36.8940 C.3    93  ILE93       0.0001
     27  N         37.8010   12.4940   39.0860 N.3   114  TYR114     -0.1241
     28  CA        36.5340   12.2290   38.4200 C.3   114  TYR114      0.1605
     29  C         36.8930   11.8670   36.9810 C.2   114  TYR114      0.2264
     30  O         37.7350   12.5250   36.3940 O.2   114  TYR114     -0.2867
     31  CB        35.6600   13.4980   38.5100 C.3   114  TYR114      0.0534
     32  CG        34.3990   13.4660   37.6740 C.ar  114  TYR114     -0.0201
     33  CD1       33.2580   12.8400   38.1450 C.ar  114  TYR114     -0.0009
     34  CD2       34.3560   14.0480   36.4220 C.ar  114  TYR114     -0.0009
     35  CE1       32.1150   12.7970   37.3900 C.ar  114  TYR114      0.0417
     36  CE2       33.2240   13.9840   35.6510 C.ar  114  TYR114      0.0417
     37  CZ        32.1050   13.3670   36.1490 C.ar  114  TYR114      0.1957
     38  OH        30.9520   13.3100   35.4130 O.3   114  TYR114     -0.2866
     39  N         37.1820   14.5670   34.1640 N.3   117  THR117     -0.1218
     40  CA        38.3350   15.3950   34.4840 C.3   117  THR117      0.1862
     41  C         39.6290   14.6850   34.0740 C.2   117  THR117      0.2287
     42  O         40.4280   15.2440   33.3590 O.2   117  THR117     -0.2866
     43  CB        38.3790   15.7390   35.9680 C.3   117  THR117      0.1770
     44  OG1       37.1580   16.3580   36.3560 O.3   117  THR117     -0.2211
     45  CG2       39.4280   16.8180   36.2190 C.3   117  THR117      0.0375
     46  N         40.4180   17.1290   43.8990 N.3   157  GLU157     -0.1245
     47  CA        39.1400   17.0030   44.5670 C.3   157  GLU157      0.1567
     48  C         39.4250   16.5900   45.9830 C.2   157  GLU157      0.2260
     49  O         40.3200   15.7870   46.2160 O.2   157  GLU157     -0.2867
     50  CB        38.2730   15.9080   43.9390 C.3   157  GLU157      0.0388
     51  CG        37.7830   16.1610   42.5250 C.3   157  GLU157      0.1160
     52  CD        37.9530   14.9450   41.6300 C.2   157  GLU157      0.3649
     53  OE1       37.8330   13.7890   42.1380 O.co2 157  GLU157     -0.2457
     54  OE2       38.1950   15.1310   40.4160 O.co2 157  GLU157     -0.2457
     55  N         36.9980   11.3270   44.1910 N.3   161  ASN161     -0.1240
     56  CA        36.0890   10.3680   43.5660 C.3   161  ASN161      0.1653
     57  C         35.9920    8.9510   44.1160 C.2   161  ASN161      0.2266
     58  O         34.8770    8.5680   44.5810 O.2   161  ASN161     -0.2867
     59  CB        36.3620   10.2980   42.0660 C.3   161  ASN161      0.1155
     60  CG        35.4270    9.3560   41.3420 C.2   161  ASN161      0.2627
     61  OD1       34.2760    9.1230   41.7910 O.2   161  ASN161     -0.2716
     62  ND2       35.9080    8.8030   40.1940 N.am  161  ASN161     -0.0877
     63  N         38.0270   21.2770   43.5290 N.3   186  ASP186     -0.1239
     64  CA        36.6740   20.8170   43.2100 C.3   186  ASP186      0.1674
     65  C         35.9560   20.5280   44.5010 C.2   186  ASP186      0.2266
     66  O         36.1740   19.4890   45.1330 O.2   186  ASP186     -0.2867
     67  CB        36.7470   19.5060   42.4170 C.3   186  ASP186      0.1410
     68  CG        35.4360   19.1290   41.7750 C.2   186  ASP186      0.3668
     69  OD1       34.3600   19.2880   42.3890 O.co2 186  ASP186     -0.2456
     70  OD2       35.3870   18.6680   40.6260 O.co2 186  ASP186     -0.2456
     71  N         32.7890   19.9340   44.9010 N.3   188  THR188     -0.1203
     72  CA        31.4410   19.4730   44.5290 C.3   188  THR188      0.1994
     73  C         30.7870   18.7280   45.7010 C.2   188  THR188      0.2617
     74  O         29.6460   19.0200   46.0960 O.2   188  THR188     -0.2717
     75  CB        31.4580   18.5450   43.3130 C.3   188  THR188      0.1784
     76  OG1       31.9480   19.2120   42.1470 O.3   188  THR188     -0.2211
     77  CG2       30.0640   18.1930   42.9350 C.3   188  THR188      0.0376
     78  N         31.5530   17.8040   46.2730 N.am  189  TYR189     -0.1975
     79  CA        31.0070   16.8460   47.2100 C.3   189  TYR189      0.1639
     80  C         30.5530   17.5010   48.4920 C.2   189  TYR189      0.2290
     81  O         29.5120   17.1400   49.0250 O.2   189  TYR189     -0.2864
     82  CB        32.0340   15.7570   47.4970 C.3   189  TYR189      0.0560
     83  CG        32.0470   14.6350   46.4910 C.ar  189  TYR189     -0.0198
     84  CD1       31.6460   14.8200   45.1640 C.ar  189  TYR189     -0.0009
     85  CD2       32.4070   13.3660   46.8770 C.ar  189  TYR189     -0.0009
     86  CE1       31.6520   13.7660   44.2680 C.ar  189  TYR189      0.0417
     87  CE2       32.3990   12.3190   45.9880 C.ar  189  TYR189      0.0417
     88  CZ        32.0340   12.5180   44.6970 C.ar  189  TYR189      0.1957
     89  OH        32.0620   11.4190   43.8610 O.3   189  TYR189     -0.2866
     90  N         30.4980   20.9940   40.2090 N.3   208  SER208     -0.1217
     91  CA        29.3550   20.4990   39.4420 C.3   208  SER208      0.1889
     92  C         28.0770   20.8820   40.1980 C.2   208  SER208      0.2288
     93  O         27.6800   20.1730   41.1250 O.2   208  SER208     -0.2866
     94  CB        29.4240   18.9980   39.2870 C.3   208  SER208      0.2089
     95  OG        28.4460   18.5930   38.3750 O.3   208  SER208     -0.2183
     96  N         25.3500   20.6620   39.0300 N.3   210  THR210     -0.1203
     97  CA        24.4900   19.5370   38.6980 C.3   210  THR210      0.1994
     98  C         24.1650   18.6740   39.9130 C.2   210  THR210      0.2617
     99  O         23.1380   18.0290   39.9340 O.2   210  THR210     -0.2717
    100  CB        25.2180   18.6570   37.6390 C.3   210  THR210      0.1784
    101  OG1       25.6560   19.4660   36.5320 O.3   210  THR210     -0.2211
    102  CG2       24.2800   17.6390   37.0170 C.3   210  THR210      0.0376
    103  N         25.0540   18.6310   40.9110 N.am  211  LYS211     -0.1979
    104  CA        24.8880   17.7030   42.0300 C.3   211  LYS211      0.1596
    105  C         24.1680   18.3330   43.2300 C.2   211  LYS211      0.2287
    106  O         23.0520   18.7860   43.0770 O.2   211  LYS211     -0.2864
    107  CB        26.2300   17.0630   42.4010 C.3   211  LYS211      0.0298
    108  CG        27.1050   16.6170   41.2020 C.3   211  LYS211      0.0038
    109  CD        26.3680   15.7400   40.2440 C.3   211  LYS211      0.0206
    110  CE        27.2210   15.3620   39.0450 C.3   211  LYS211      0.1093
    111  NZ        28.5190   14.6810   39.4420 N.3   211  LYS211     -0.1314
    112  N         21.8160   20.6260   34.5290 N.3   220  THR220     -0.1218
    113  CA        23.2650   20.5390   34.4870 C.3   220  THR220      0.1862
    114  C         23.8410   21.9640   34.5890 C.2   220  THR220      0.2287
    115  O         23.4300   22.8360   33.8620 O.2   220  THR220     -0.2866
    116  CB        23.7230   19.8570   33.1990 C.3   220  THR220      0.1770
    117  OG1       23.2320   18.5100   33.1290 O.3   220  THR220     -0.2211
    118  CG2       25.2060   19.6770   33.2040 C.3   220  THR220      0.0375
    119  N         25.1480   12.0840   41.5830 N.3   341  LEU341     -0.1245
    120  CA        25.0510   12.1190   43.0310 C.3   341  LEU341      0.1561
    121  C         24.3970   13.4090   43.4450 C.2   341  LEU341      0.2260
    122  O         24.2660   14.3490   42.6450 O.2   341  LEU341     -0.2867
    123  CB        26.4510   12.0730   43.6530 C.3   341  LEU341      0.0270
    124  CG        27.3930   13.2430   43.2740 C.3   341  LEU341      0.0019
    125  CD1       27.9380   14.0220   44.4990 C.3   341  LEU341      0.0001
    126  CD2       28.5290   12.7500   42.4690 C.3   341  LEU341      0.0001
    127  N         29.7200    2.6950   45.1020 N.3   375  ARG375     -0.1245
    128  CA        29.5170    4.0640   45.5900 C.3   375  ARG375      0.1563
    129  C         28.0340    4.3800   45.7520 C.2   375  ARG375      0.2260
    130  O         27.2370    4.1080   44.8590 O.2   375  ARG375     -0.2867
    131  CB        30.1500    5.0750   44.6370 C.3   375  ARG375      0.0307
    132  CG        30.4360    6.3920   45.3000 C.3   375  ARG375      0.0489
    133  CD        30.8230    7.4820   44.3280 C.3   375  ARG375      0.2205
    134  NE        29.7200    7.8240   43.4290 N.pl3 375  ARG375     -0.0865
    135  CZ        29.8070    8.7120   42.4400 C.cat 375  ARG375      0.5346
    136  NH1       30.9520    9.3540   42.2430 N.pl3 375  ARG375      0.1354
    137  NH2       28.7620    8.9700   41.6580 N.pl3 375  ARG375      0.1354
@<TRIPOS>BOND
     1     6     5    1
     2    18    17    1
     3    15    16    1
     4    15    12    1
     5    14    13    2
     6    13    12    1
     7     5     2    1
     8    16    17    1
     9     1     2    1
    10    12    11    1
    11   117   116    1
    12   116   118    1
    13   116   113    1
    14    42    41    2
    15     2     3    1
    16    21    22    2
    17    21    20    1
    18   115   114    2
    19    11     9   am
    20    41    40    1
    21    39    40    1
    22     4     3    2
    23     3     7   am
    24    40    43    1
    25   113   112    1
    26   113   114    1
    27    19    20    1
    28    20    23    1
    29    25    23    1
    30     9    10    2
    31     9     8    1
    32     7     8    1
    33    23    24    1
    34    38    37    1
    35    36    37   ar
    36    36    34   ar
    37    43    45    1
    38    43    44    1
    39    37    35   ar
    40    30    29    2
    41    34    32   ar
    42   101   100    1
    43    24    26    1
    44    29    28    1
    45   102   100    1
    46    35    33   ar
    47   100    97    1
    48    32    33   ar
    49    32    31    1
    50    95    94    1
    51    28    31    1
    52    28    27    1
    53    97    96    1
    54    97    98    1
    55   110   111    1
    56   110   109    1
    57    94    91    1
    58    91    92    1
    59    91    90    1
    60    98    99    2
    61    98   103   am
    62    62    60   am
    63    92    93    2
    64   109   108    1
    65    54    52   ar
    66    70    68   ar
    67   103   104    1
    68   108   107    1
    69    60    61    2
    70    60    59    1
    71   119   120    1
    72    52    53   ar
    73    52    51    1
    74   137   135    1
    75    68    69   ar
    76    68    67    1
    77   104   107    1
    78   104   105    1
    79    59    56    1
    80    76    75    1
    81   136   135    1
    82    67    64    1
    83   135   134    2
    84   126   124    1
    85    51    50    1
    86   122   121    2
    87    77    75    1
    88   120   121    1
    89   120   123    1
    90   106   105    2
    91    64    63    1
    92    64    65    1
    93   124   123    1
    94   124   125    1
    95    75    72    1
    96   134   133    1
    97    56    57    1
    98    56    55    1
    99    89    88    1
   100    46    47    1
   101    50    47    1
   102    57    58    2
   103    86    88   ar
   104    86    84   ar
   105   133   132    1
   106    65    66    2
   107    72    71    1
   108    72    73    1
   109    47    48    1
   110   131   132    1
   111   131   128    1
   112    88    87   ar
   113   130   129    2
   114   127   128    1
   115    84    83   ar
   116   128   129    1
   117    73    74    2
   118    73    78   am
   119    48    49    2
   120    87    85   ar
   121    78    79    1
   122    83    85   ar
   123    83    82    1
   124    79    82    1
   125    79    80    1
   126    80    81    2
