@<TRIPOS>MOLECULE
tmp/1pgeA05.pdb
 182 174 0 0 0
SMALL
GASTEIGER

@<TRIPOS>ATOM
      1  N         22.1530   28.5310  220.2780 N.3    61  LEU61      -0.1245
      2  CA        22.8910   29.7730  220.1750 C.3    61  LEU61       0.1561
      3  C         22.0680   31.0200  220.3830 C.2    61  LEU61       0.2260
      4  O         22.6060   32.1200  220.4320 O.2    61  LEU61      -0.2867
      5  CB        23.6660   29.8290  218.8590 C.3    61  LEU61       0.0270
      6  CG        25.0470   29.1680  218.9650 C.3    61  LEU61       0.0019
      7  CD1       25.5560   28.7380  217.6190 C.3    61  LEU61       0.0001
      8  CD2       26.0250   30.1260  219.6260 C.3    61  LEU61       0.0001
      9  N         34.6170   30.0720  219.5060 N.3    81  MET81      -0.1245
     10  CA        34.9110   31.0390  218.4510 C.3    81  MET81       0.1570
     11  C         35.8830   30.4380  217.4540 C.2    81  MET81       0.2261
     12  O         35.7400   30.6300  216.2380 O.2    81  MET81      -0.2867
     13  CB        35.4610   32.3470  219.0270 C.3    81  MET81       0.0387
     14  CG        35.5810   33.4710  218.0030 C.3    81  MET81       0.0595
     15  SD        34.0220   33.8340  217.1270 S.3    81  MET81      -0.1393
     16  CE        34.6340   34.2030  215.5330 C.3    81  MET81       0.0692
     17  N         33.9130   27.5520  215.4180 N.3    84  VAL84      -0.1245
     18  CA        33.1410   28.1840  214.3560 C.3    84  VAL84       0.1561
     19  C         34.0340   28.5500  213.1430 C.2    84  VAL84       0.2260
     20  O         33.8150   28.0840  212.0100 O.2    84  VAL84      -0.2867
     21  CB        32.4840   29.4650  214.8970 C.3    84  VAL84       0.0252
     22  CG1       31.8080   30.2330  213.7660 C.3    84  VAL84       0.0019
     23  CG2       31.4980   29.1050  216.0110 C.3    84  VAL84       0.0019
     24  N         33.6080   26.1980  209.9530 N.3    88  ARG88      -0.1245
     25  CA        32.8400   26.9320  208.9650 C.3    88  ARG88       0.1563
     26  C         33.6440   27.0860  207.6770 C.2    88  ARG88       0.2260
     27  O         33.1070   26.9930  206.5710 O.2    88  ARG88      -0.2867
     28  CB        32.5050   28.3190  209.5100 C.3    88  ARG88       0.0307
     29  CG        31.0400   28.6780  209.4410 C.3    88  ARG88       0.0489
     30  CD        30.2500   27.7880  210.3610 C.3    88  ARG88       0.2205
     31  NE        29.0380   27.3240  209.7120 N.pl3  88  ARG88      -0.0865
     32  CZ        27.8280   27.5680  210.1780 C.cat  88  ARG88       0.5346
     33  NH1       27.6800   28.2680  211.2910 N.pl3  88  ARG88       0.1354
     34  NH2       26.7730   27.1130  209.5320 N.pl3  88  ARG88       0.1354
     35  N         28.6450   43.6940  213.2970 N.3   316  TYR316     -0.1227
     36  CA        27.8460   43.3650  212.1210 C.3   316  TYR316      0.1736
     37  C         27.4250   41.8930  212.0940 C.2   316  TYR316      0.2595
     38  O         26.2430   41.5860  211.9780 O.2   316  TYR316     -0.2718
     39  CB        28.6380   43.7240  210.8660 C.3   316  TYR316      0.0548
     40  CG        28.0000   43.3720  209.5480 C.ar  316  TYR316     -0.0200
     41  CD1       28.0270   42.0670  209.0570 C.ar  316  TYR316     -0.0009
     42  CD2       27.4890   44.3650  208.7260 C.ar  316  TYR316     -0.0009
     43  CE1       27.5720   41.7720  207.7660 C.ar  316  TYR316      0.0417
     44  CE2       27.0350   44.0820  207.4390 C.ar  316  TYR316      0.0417
     45  CZ        27.0860   42.7920  206.9610 C.ar  316  TYR316      0.1957
     46  OH        26.7180   42.5400  205.6570 O.3   316  TYR316     -0.2866
     47  N         28.3730   40.9790  212.2250 N.am  317  VAL317     -0.1980
     48  CA        28.0120   39.5710  212.1910 C.3   317  VAL317      0.1595
     49  C         27.2910   39.1710  213.4640 C.2   317  VAL317      0.2287
     50  O         26.3960   38.3250  213.4370 O.2   317  VAL317     -0.2864
     51  CB        29.2330   38.6600  211.9310 C.3   317  VAL317      0.0276
     52  CG1       28.8430   37.1740  211.9980 C.3   317  VAL317      0.0022
     53  CG2       29.8110   38.9850  210.5670 C.3   317  VAL317      0.0022
     54  N         23.5740   40.1510  212.7180 N.3   320  LEU320     -0.1231
     55  CA        22.9290   39.3300  211.7190 C.3   320  LEU320      0.1693
     56  C         22.6350   37.9240  212.2600 C.2   320  LEU320      0.2592
     57  O         21.6050   37.3260  211.9380 O.2   320  LEU320     -0.2718
     58  CB        23.8450   39.2320  210.4910 C.3   320  LEU320      0.0284
     59  CG        23.3390   39.2080  209.0500 C.3   320  LEU320      0.0019
     60  CD1       24.1230   38.1590  208.3190 C.3   320  LEU320      0.0001
     61  CD2       21.8730   38.9010  208.9650 C.3   320  LEU320      0.0001
     62  N         23.5300   37.3980  213.0890 N.am  321  SER321     -0.1952
     63  CA        23.3720   36.0420  213.6160 C.3   321  SER321      0.1924
     64  C         22.3210   35.9170  214.6890 C.2   321  SER321      0.2314
     65  O         21.5620   34.9400  214.7180 O.2   321  SER321     -0.2863
     66  CB        24.6930   35.5580  214.1810 C.3   321  SER321      0.2116
     67  OG        25.1340   36.4670  215.1740 O.3   321  SER321     -0.2180
     68  N         23.0700   35.4720  217.7420 N.3   323  TYR323     -0.1241
     69  CA        23.6240   34.5620  218.7290 C.3   323  TYR323      0.1605
     70  C         23.8860   35.2470  220.0640 C.2   323  TYR323      0.2264
     71  O         24.0580   36.4630  220.1150 O.2   323  TYR323     -0.2867
     72  CB        24.9300   33.9720  218.1960 C.3   323  TYR323      0.0534
     73  CG        24.7550   33.1100  216.9750 C.ar  323  TYR323     -0.0201
     74  CD1       23.5120   32.9810  216.3760 C.ar  323  TYR323     -0.0009
     75  CD2       25.8220   32.3970  216.4370 C.ar  323  TYR323     -0.0009
     76  CE1       23.3270   32.1610  215.2760 C.ar  323  TYR323      0.0417
     77  CE2       25.6490   31.5680  215.3330 C.ar  323  TYR323      0.0417
     78  CZ        24.3930   31.4540  214.7600 C.ar  323  TYR323      0.1957
     79  OH        24.1510   30.6120  213.7000 O.3   323  TYR323     -0.2866
     80  N         30.7790   36.8280  219.7500 N.3   327  LEU327     -0.1245
     81  CA        31.7560   36.5370  218.7080 C.3   327  LEU327      0.1561
     82  C         33.0350   37.3150  218.9890 C.2   327  LEU327      0.2260
     83  O         32.9790   38.3650  219.6200 O.2   327  LEU327     -0.2867
     84  CB        31.1840   36.9160  217.3460 C.3   327  LEU327      0.0270
     85  CG        29.9900   36.0690  216.9110 C.3   327  LEU327      0.0019
     86  CD1       29.3950   36.5920  215.5950 C.3   327  LEU327      0.0001
     87  CD2       30.4480   34.6240  216.7900 C.3   327  LEU327      0.0001
     88  N         28.2800   33.1880  196.3410 N.3   349  PHE349     -0.1241
     89  CA        28.2880   34.1030  197.4650 C.3   349  PHE349      0.1605
     90  C         27.7240   35.4760  197.0820 C.2   349  PHE349      0.2264
     91  O         27.1010   36.1390  197.8990 O.2   349  PHE349     -0.2867
     92  CB        29.7200   34.2030  197.9790 C.3   349  PHE349      0.0534
     93  CG        29.8990   35.1270  199.1310 C.ar  349  PHE349     -0.0203
     94  CD1       29.0750   35.0470  200.2360 C.ar  349  PHE349     -0.0042
     95  CD2       30.9160   36.0610  199.1150 C.ar  349  PHE349     -0.0042
     96  CE1       29.2600   35.8780  201.3020 C.ar  349  PHE349     -0.0003
     97  CE2       31.1050   36.8900  200.1710 C.ar  349  PHE349     -0.0003
     98  CZ        30.2750   36.8000  201.2690 C.ar  349  PHE349     -0.0000
     99  N         23.7500   35.0250  196.8900 N.3   352  LEU352     -0.1231
    100  CA        23.4010   34.8390  198.2760 C.3   352  LEU352      0.1693
    101  C         23.5470   36.0910  199.1710 C.2   352  LEU352      0.2592
    102  O         23.0700   36.1050  200.2970 O.2   352  LEU352     -0.2718
    103  CB        24.2750   33.6820  198.7360 C.3   352  LEU352      0.0284
    104  CG        24.3580   33.0090  200.0770 C.3   352  LEU352      0.0019
    105  CD1       25.0160   31.6470  199.8610 C.3   352  LEU352      0.0001
    106  CD2       25.1790   33.8650  200.9630 C.3   352  LEU352      0.0001
    107  N         24.1680   37.1470  198.6570 N.am  353  TYR353     -0.1976
    108  CA        24.3360   38.3880  199.4030 C.3   353  TYR353      0.1639
    109  C         23.5680   39.5090  198.6960 C.2   353  TYR353      0.2290
    110  O         23.9640   40.6720  198.7650 O.2   353  TYR353     -0.2864
    111  CB        25.8130   38.7680  199.4720 C.3   353  TYR353      0.0560
    112  CG        26.3430   39.1410  200.8450 C.ar  353  TYR353     -0.0198
    113  CD1       25.6450   39.9970  201.6920 C.ar  353  TYR353     -0.0009
    114  CD2       27.5580   38.6350  201.2940 C.ar  353  TYR353     -0.0009
    115  CE1       26.1550   40.3410  202.9680 C.ar  353  TYR353      0.0417
    116  CE2       28.0700   38.9670  202.5590 C.ar  353  TYR353      0.0417
    117  CZ        27.3660   39.8170  203.3900 C.ar  353  TYR353      0.1957
    118  OH        27.8810   40.1200  204.6360 O.3   353  TYR353     -0.2866
    119  N         20.7700   40.9620  199.3550 N.3   355  TRP355     -0.1241
    120  CA        19.8160   41.3510  200.3950 C.3   355  TRP355      0.1605
    121  C         18.8880   42.5420  200.1390 C.2   355  TRP355      0.2264
    122  O         18.4720   43.2100  201.0960 O.2   355  TRP355     -0.2867
    123  CB        20.5840   41.6420  201.6850 C.3   355  TRP355      0.0550
    124  CG        21.3070   40.4740  202.2970 C.ar  355  TRP355      0.0003
    125  CD1       21.2220   39.1400  201.9410 C.ar  355  TRP355      0.0946
    126  CD2       22.1940   40.5360  203.4130 C.ar  355  TRP355      0.0152
    127  NE1       22.0000   38.3830  202.7810 N.ar  355  TRP355     -0.2442
    128  CE2       22.6080   39.2110  203.6930 C.ar  355  TRP355      0.0810
    129  CE3       22.6800   41.5830  204.2020 C.ar  355  TRP355      0.0012
    130  CZ2       23.4900   38.9120  204.7310 C.ar  355  TRP355      0.0191
    131  CZ3       23.5440   41.2880  205.2190 C.ar  355  TRP355      0.0001
    132  CH2       23.9450   39.9590  205.4800 C.ar  355  TRP355      0.0015
    133  N         16.3460   35.6950  208.1730 N.3   486  PHE486     -0.1241
    134  CA        16.3330   34.7300  207.0820 C.3   486  PHE486      0.1605
    135  C         16.2740   33.3070  207.6160 C.2   486  PHE486      0.2264
    136  O         16.0490   33.0840  208.8120 O.2   486  PHE486     -0.2867
    137  CB        17.4810   34.9210  206.0650 C.3   486  PHE486      0.0534
    138  CG        18.8320   35.1750  206.6780 C.ar  486  PHE486     -0.0203
    139  CD1       19.3170   34.3780  207.7110 C.ar  486  PHE486     -0.0042
    140  CD2       19.6230   36.2310  206.2190 C.ar  486  PHE486     -0.0042
    141  CE1       20.5740   34.6280  208.2840 C.ar  486  PHE486     -0.0003
    142  CE2       20.8750   36.4900  206.7770 C.ar  486  PHE486     -0.0003
    143  CZ        21.3530   35.6860  207.8180 C.ar  486  PHE486     -0.0000
    144  N         20.4520   30.4610  204.0980 N.3   490  MET490     -0.1230
    145  CA        21.1000   31.7550  203.9230 C.3   490  MET490      0.1702
    146  C         22.2930   31.8500  204.8470 C.2   490  MET490      0.2592
    147  O         23.3250   32.4240  204.4950 O.2   490  MET490     -0.2718
    148  CB        20.1240   32.9020  204.2330 C.3   490  MET490      0.0401
    149  CG        20.7090   34.2920  204.0520 C.3   490  MET490      0.0596
    150  SD        20.8310   34.7200  202.3290 S.3   490  MET490     -0.1393
    151  CE        19.1100   35.0220  201.9310 C.3   490  MET490      0.0692
    152  N         22.1610   31.2600  206.0220 N.am  491  ILE491     -0.1980
    153  CA        23.2280   31.3320  206.9860 C.3   491  ILE491      0.1595
    154  C         24.1990   30.1900  206.8150 C.2   491  ILE491      0.2287
    155  O         25.3990   30.4010  206.7360 O.2   491  ILE491     -0.2864
    156  CB        22.6640   31.3990  208.4210 C.3   491  ILE491      0.0276
    157  CG1       23.4050   32.4500  209.2250 C.3   491  ILE491      0.0022
    158  CG2       22.7920   30.0670  209.1400 C.3   491  ILE491      0.0022
    159  CD1       22.7340   32.7390  210.5510 C.3   491  ILE491      0.0001
    160  N         26.0540   30.9670  203.5550 N.3   494  GLY494     -0.1210
    161  CA        26.7070   32.2570  203.5540 C.3   494  GLY494      0.1956
    162  C         27.8030   32.4160  204.5690 C.2   494  GLY494      0.2611
    163  O         28.8360   33.0030  204.2690 O.2   494  GLY494     -0.2717
    164  N         27.5940   31.8800  205.7640 N.am  495  ALA495     -0.1979
    165  CA        28.5760   31.9850  206.8350 C.3   495  ALA495      0.1597
    166  C         29.9660   31.5870  206.3970 C.2   495  ALA495      0.2287
    167  O         30.9030   32.3350  206.6130 O.2   495  ALA495     -0.2864
    168  CB        28.1590   31.1720  208.0190 C.3   495  ALA495      0.0319
    169  N         31.5610   33.8320  204.1110 N.3   498  SER498     -0.1202
    170  CA        31.8040   35.0260  204.9090 C.3   498  SER498      0.2020
    171  C         33.0290   34.9660  205.8130 C.2   498  SER498      0.2618
    172  O         33.9310   35.7790  205.6860 O.2   498  SER498     -0.2717
    173  CB        30.5590   35.3660  205.7360 C.3   498  SER498      0.2103
    174  OG        30.3950   36.7660  205.9000 O.3   498  SER498     -0.2182
    175  N         33.0780   34.0140  206.7290 N.am  499  LEU499     -0.1979
    176  CA        34.2140   33.9350  207.6350 C.3   499  LEU499      0.1596
    177  C         35.5120   33.6250  206.9230 C.2   499  LEU499      0.2287
    178  O         36.5550   34.0960  207.3480 O.2   499  LEU499     -0.2864
    179  CB        33.9400   32.9660  208.7900 C.3   499  LEU499      0.0297
    180  CG        32.7330   33.4380  209.6160 C.3   499  LEU499      0.0022
    181  CD1       32.3090   32.4060  210.6200 C.3   499  LEU499      0.0001
    182  CD2       33.0530   34.7420  210.2910 C.3   499  LEU499      0.0001
@<TRIPOS>BOND
     1    88    89    1
     2    99   100    1
     3    90    89    1
     4    90    91    2
     5    89    92    1
     6    92    93    1
     7   100   103    1
     8   100   101    1
     9   107   101   am
    10   107   108    1
    11   109   110    2
    12   109   108    1
    13   103   104    1
    14    95    93   ar
    15    95    97   ar
    16    93    94   ar
    17   101   102    2
    18   119   120    1
    19   108   111    1
    20   111   112    1
    21   105   104    1
    22   104   106    1
    23   121   120    1
    24   121   122    2
    25    97    98   ar
    26    94    96   ar
    27   120   123    1
    28   112   114   ar
    29   112   113   ar
    30    98    96   ar
    31   114   116   ar
    32   123   124    1
    33   113   115   ar
    34   151   150    1
    35   125   124   ar
    36   125   127   ar
    37   124   126   ar
    38   150   149    1
    39   116   117   ar
    40   127   128   ar
    41   115   117   ar
    42   117   118    1
    43   126   128   ar
    44   126   129   ar
    45   161   160    1
    46   161   162    1
    47   128   130   ar
    48   145   144    1
    49   145   148    1
    50   145   146    1
    51   149   148    1
    52   169   170    1
    53   129   131   ar
    54   163   162    2
    55   147   146    2
    56   162   164   am
    57   130   132   ar
    58   146   152   am
    59   170   173    1
    60   170   171    1
    61   131   132   ar
    62    46    45    1
    63   172   171    2
    64   173   174    1
    65   164   165    1
    66   171   175   am
    67   152   153    1
    68   137   138    1
    69   137   134    1
    70   140   138   ar
    71   140   142   ar
    72   166   167    2
    73   166   165    1
    74    27    26    2
    75   138   139   ar
    76   175   176    1
    77   155   154    2
    78   142   143   ar
    79   154   153    1
    80   165   168    1
    81   177   178    2
    82   177   176    1
    83    45    44   ar
    84    45    43   ar
    85   153   156    1
    86   134   135    1
    87   134   133    1
    88    44    42   ar
    89   135   136    2
    90   176   179    1
    91    26    25    1
    92   139   141   ar
    93    43    41   ar
    94   143   141   ar
    95    60    59    1
    96   156   158    1
    97   156   157    1
    98    42    40   ar
    99   179   180    1
   100    25    28    1
   101    25    24    1
   102    61    59    1
   103    59    58    1
   104    41    40   ar
   105   157   159    1
   106    29    28    1
   107    29    30    1
   108    34    32    1
   109    40    39    1
   110   180   182    1
   111   180   181    1
   112    31    32    2
   113    31    30    1
   114    32    33    1
   115    58    55    1
   116    53    51    1
   117    39    36    1
   118    55    56    1
   119    55    54    1
   120    51    52    1
   121    51    48    1
   122    57    56    2
   123    38    37    2
   124    20    19    2
   125    37    36    1
   126    37    47   am
   127    36    35    1
   128    48    47    1
   129    48    49    1
   130    56    62   am
   131    62    63    1
   132    19    18    1
   133    50    49    2
   134    63    66    1
   135    63    64    1
   136    79    78    1
   137    22    21    1
   138    66    67    1
   139    18    21    1
   140    18    17    1
   141    64    65    2
   142    78    76   ar
   143    78    77   ar
   144    21    23    1
   145    76    74   ar
   146    77    75   ar
   147    16    15    1
   148    86    85    1
   149    12    11    2
   150    74    73   ar
   151    75    73   ar
   152    87    85    1
   153    85    84    1
   154    73    72    1
   155    15    14    1
   156    84    81    1
   157    11    10    1
   158     7     6    1
   159    68    69    1
   160    14    13    1
   161    72    69    1
   162    10    13    1
   163    10     9    1
   164    81    82    1
   165    81    80    1
   166    69    70    1
   167     5     6    1
   168     5     2    1
   169     6     8    1
   170    82    83    2
   171    70    71    2
   172     2     1    1
   173     2     3    1
   174     3     4    2
