@<TRIPOS>MOLECULE
tmp/1pgfB04.pdb
 174 167 0 0 0
SMALL
GASTEIGER

@<TRIPOS>ATOM
      1  N         62.4600   13.4150  203.3190 N.3    81  MET81      -0.1245
      2  CA        62.0360   14.3450  202.2830 C.3    81  MET81       0.1570
      3  C         60.9730   15.2920  202.7450 C.2    81  MET81       0.2261
      4  O         61.0850   16.4860  202.5450 O.2    81  MET81      -0.2867
      5  CB        61.5270   13.6060  201.0570 C.3    81  MET81       0.0387
      6  CG        61.0520   14.5320  199.9550 C.3    81  MET81       0.0595
      7  SD        62.1810   14.5900  198.5560 S.3    81  MET81      -0.1393
      8  CE        62.9770   16.2030  198.7360 C.3    81  MET81       0.0692
      9  N         62.3710   17.8340  204.6960 N.3    84  VAL84      -0.1245
     10  CA        63.1210   18.7320  203.8220 C.3    84  VAL84       0.1561
     11  C         62.1540   19.7620  203.2760 C.2    84  VAL84       0.2260
     12  O         62.3550   20.9620  203.4220 O.2    84  VAL84      -0.2867
     13  CB        63.7750   17.9570  202.6280 C.3    84  VAL84       0.0252
     14  CG1       63.5580   18.7050  201.3060 C.3    84  VAL84       0.0019
     15  CG2       65.2750   17.7400  202.8880 C.3    84  VAL84       0.0019
     16  N         62.7060   23.3320  204.7610 N.3    88  ARG88      -0.1245
     17  CA        63.2940   24.1520  203.7300 C.3    88  ARG88       0.1563
     18  C         62.3820   25.3590  203.3990 C.2    88  ARG88       0.2260
     19  O         62.8290   26.5140  203.3960 O.2    88  ARG88      -0.2867
     20  CB        63.5830   23.2750  202.5080 C.3    88  ARG88       0.0307
     21  CG        64.6970   23.7860  201.6050 C.3    88  ARG88       0.0489
     22  CD        65.8140   22.7550  201.3470 C.3    88  ARG88       0.2205
     23  NE        67.0480   23.0770  202.0770 N.pl3  88  ARG88      -0.0865
     24  CZ        68.1240   22.2990  202.1510 C.cat  88  ARG88       0.5346
     25  NH1       68.1600   21.1300  201.5270 N.pl3  88  ARG88       0.1354
     26  NH2       69.1110   22.6390  202.9690 N.pl3  88  ARG88       0.1354
     27  N         66.8030   16.5490  188.3200 N.3   316  TYR316     -0.1227
     28  CA        67.4790   17.8190  188.3120 C.3   316  TYR316      0.1736
     29  C         67.9940   18.1540  189.7170 C.2   316  TYR316      0.2595
     30  O         69.2010   18.2860  189.8820 O.2   316  TYR316     -0.2718
     31  CB        66.5460   18.8810  187.7500 C.3   316  TYR316      0.0548
     32  CG        67.1580   20.2290  187.6280 C.ar  316  TYR316     -0.0200
     33  CD1       67.8340   20.7840  188.6770 C.ar  316  TYR316     -0.0009
     34  CD2       67.0150   20.9680  186.4760 C.ar  316  TYR316     -0.0009
     35  CE1       68.3560   22.0370  188.5990 C.ar  316  TYR316      0.0417
     36  CE2       67.5300   22.2380  186.3790 C.ar  316  TYR316      0.0417
     37  CZ        68.2000   22.7710  187.4470 C.ar  316  TYR316      0.1957
     38  OH        68.6930   24.0490  187.3830 O.3   316  TYR316     -0.2866
     39  N         67.1160   18.2870  190.7230 N.am  317  VAL317     -0.1980
     40  CA        67.5440   18.6000  192.1150 C.3   317  VAL317      0.1595
     41  C         68.3750   17.4970  192.7260 C.2   317  VAL317      0.2287
     42  O         68.9850   17.6940  193.7640 O.2   317  VAL317     -0.2864
     43  CB        66.3700   18.8530  193.1160 C.3   317  VAL317      0.0276
     44  CG1       66.8980   19.1930  194.5460 C.3   317  VAL317      0.0022
     45  CG2       65.5010   19.9620  192.6130 C.3   317  VAL317      0.0022
     46  N         72.2210   18.3330  191.3990 N.3   320  LEU320     -0.1231
     47  CA        72.8430   19.3790  192.1800 C.3   320  LEU320      0.1693
     48  C         73.2730   18.9320  193.5630 C.2   320  LEU320      0.2592
     49  O         74.4470   18.9500  193.8890 O.2   320  LEU320     -0.2718
     50  CB        71.9430   20.6000  192.3020 C.3   320  LEU320      0.0284
     51  CG        71.8720   21.5900  191.1490 C.3   320  LEU320      0.0019
     52  CD1       71.7480   22.9810  191.7240 C.3   320  LEU320      0.0001
     53  CD2       73.1120   21.5110  190.3510 C.3   320  LEU320      0.0001
     54  N         72.3290   18.4870  194.3610 N.am  321  SER321     -0.1952
     55  CA        72.6160   18.0610  195.7200 C.3   321  SER321      0.1924
     56  C         73.9130   17.3190  195.8270 C.2   321  SER321      0.2314
     57  O         74.8410   17.7690  196.5050 O.2   321  SER321     -0.2863
     58  CB        71.5090   17.1330  196.2230 C.3   321  SER321      0.2116
     59  OG        71.6510   15.7940  195.7470 O.3   321  SER321     -0.2180
     60  N         73.5610   14.2380  196.6380 N.3   323  TYR323     -0.1241
     61  CA        72.9840   13.3340  197.6120 C.3   323  TYR323      0.1605
     62  C         72.6850   11.9260  197.1890 C.2   323  TYR323      0.2264
     63  O         72.3380   11.6690  196.0320 O.2   323  TYR323     -0.2867
     64  CB        71.6880   13.9480  198.1400 C.3   323  TYR323      0.0534
     65  CG        71.8870   15.2050  198.9330 C.ar  323  TYR323     -0.0201
     66  CD1       73.0290   15.9780  198.7590 C.ar  323  TYR323     -0.0009
     67  CD2       70.9740   15.5870  199.8980 C.ar  323  TYR323     -0.0009
     68  CE1       73.2640   17.0870  199.5170 C.ar  323  TYR323      0.0417
     69  CE2       71.2020   16.6920  200.6750 C.ar  323  TYR323      0.0417
     70  CZ        72.3570   17.4400  200.4800 C.ar  323  TYR323      0.1957
     71  OH        72.6270   18.5470  201.2570 O.3   323  TYR323     -0.2866
     72  N         65.4100   11.6890  196.2560 N.3   327  LEU327     -0.1245
     73  CA        64.4250   12.7580  196.3480 C.3   327  LEU327      0.1561
     74  C         63.1480   12.3120  195.6640 C.2   327  LEU327      0.2260
     75  O         63.1240   12.0510  194.4660 O.2   327  LEU327     -0.2867
     76  CB        64.9180   14.0770  195.7120 C.3   327  LEU327      0.0270
     77  CG        66.1490   14.8710  196.1550 C.3   327  LEU327      0.0019
     78  CD1       66.0250   16.2470  195.5840 C.3   327  LEU327      0.0001
     79  CD2       66.2400   14.9930  197.6490 C.3   327  LEU327      0.0001
     80  N         66.4670   35.7570  194.2700 N.3   349  PHE349     -0.1241
     81  CA        66.5490   34.4660  193.6060 C.3   349  PHE349      0.1605
     82  C         67.0060   34.5130  192.1350 C.2   349  PHE349      0.2264
     83  O         67.7340   33.6230  191.6660 O.2   349  PHE349     -0.2867
     84  CB        65.2060   33.7530  193.7520 C.3   349  PHE349      0.0534
     85  CG        65.2360   32.3340  193.3270 C.ar  349  PHE349     -0.0203
     86  CD1       66.3690   31.5630  193.5470 C.ar  349  PHE349     -0.0042
     87  CD2       64.1570   31.7790  192.6760 C.ar  349  PHE349     -0.0042
     88  CE1       66.4310   30.2790  193.1260 C.ar  349  PHE349     -0.0003
     89  CE2       64.2110   30.4870  192.2480 C.ar  349  PHE349     -0.0003
     90  CZ        65.3570   29.7340  192.4750 C.ar  349  PHE349     -0.0000
     91  N         70.8590   34.8030  192.5850 N.3   352  LEU352     -0.1231
     92  CA        71.3710   33.5380  193.0580 C.3   352  LEU352      0.1693
     93  C         71.4320   32.5310  191.9240 C.2   352  LEU352      0.2592
     94  O         72.4520   31.9220  191.6820 O.2   352  LEU352     -0.2718
     95  CB        70.4140   33.0500  194.1180 C.3   352  LEU352      0.0284
     96  CG        70.7420   31.7890  194.8850 C.3   352  LEU352      0.0019
     97  CD1       71.7520   32.1120  195.9620 C.3   352  LEU352      0.0001
     98  CD2       69.4720   31.2750  195.5140 C.3   352  LEU352      0.0001
     99  N         70.3530   32.4210  191.1770 N.am  353  TYR353     -0.1976
    100  CA        70.3120   31.4650  190.0880 C.3   353  TYR353      0.1639
    101  C         71.2170   31.6810  188.8840 C.2   353  TYR353      0.2290
    102  O         71.4610   30.7190  188.1660 O.2   353  TYR353     -0.2864
    103  CB        68.8840   31.2660  189.5930 C.3   353  TYR353      0.0560
    104  CG        68.4720   29.8240  189.5570 C.ar  353  TYR353     -0.0198
    105  CD1       69.3220   28.8450  189.0700 C.ar  353  TYR353     -0.0009
    106  CD2       67.2690   29.4260  190.0980 C.ar  353  TYR353     -0.0009
    107  CE1       68.9760   27.5090  189.1410 C.ar  353  TYR353      0.0417
    108  CE2       66.9160   28.0910  190.1760 C.ar  353  TYR353      0.0417
    109  CZ        67.7700   27.1360  189.7020 C.ar  353  TYR353      0.1957
    110  OH        67.4280   25.8100  189.8230 O.3   353  TYR353     -0.2866
    111  N         73.7480   31.2460  187.1220 N.3   355  TRP355     -0.1241
    112  CA        74.8670   30.3000  186.9120 C.3   355  TRP355      0.1605
    113  C         75.5790   30.3240  185.5420 C.2   355  TRP355      0.2264
    114  O         75.7430   29.2800  184.8850 O.2   355  TRP355     -0.2867
    115  CB        74.3950   28.8490  187.1370 C.3   355  TRP355      0.0550
    116  CG        73.8030   28.4780  188.4560 C.ar  355  TRP355      0.0003
    117  CD1       74.0160   29.0520  189.6630 C.ar  355  TRP355      0.0946
    118  CD2       72.9460   27.3790  188.6740 C.ar  355  TRP355      0.0152
    119  NE1       73.3380   28.3610  190.6200 N.ar  355  TRP355     -0.2442
    120  CE2       72.6780   27.3220  190.0340 C.ar  355  TRP355      0.0810
    121  CE3       72.3770   26.4260  187.8400 C.ar  355  TRP355      0.0012
    122  CZ2       71.8610   26.3450  190.5930 C.ar  355  TRP355      0.0191
    123  CZ3       71.5660   25.4630  188.3930 C.ar  355  TRP355      0.0001
    124  CH2       71.3160   25.4280  189.7600 C.ar  355  TRP355      0.0015
    125  N         79.2490   23.8350  193.8080 N.3   486  PHE486     -0.1241
    126  CA        79.2380   25.0990  194.5410 C.3   486  PHE486      0.1605
    127  C         79.0960   24.8220  196.0390 C.2   486  PHE486      0.2264
    128  O         79.1860   23.6560  196.4760 O.2   486  PHE486     -0.2867
    129  CB        78.1780   26.0890  194.0120 C.3   486  PHE486      0.0534
    130  CG        76.7830   25.5040  193.8170 C.ar  486  PHE486     -0.0203
    131  CD1       76.3900   24.3190  194.4240 C.ar  486  PHE486     -0.0042
    132  CD2       75.8410   26.1900  193.0480 C.ar  486  PHE486     -0.0042
    133  CE1       75.0860   23.8400  194.2680 C.ar  486  PHE486     -0.0003
    134  CE2       74.5390   25.7120  192.8890 C.ar  486  PHE486     -0.0003
    135  CZ        74.1650   24.5360  193.5040 C.ar  486  PHE486     -0.0000
    136  N         74.8410   29.1610  198.4390 N.3   490  MET490     -0.1230
    137  CA        74.0910   28.8120  197.2330 C.3   490  MET490      0.1702
    138  C         73.0720   27.7220  197.4980 C.2   490  MET490      0.2592
    139  O         71.9480   27.7520  197.0200 O.2   490  MET490     -0.2718
    140  CB        75.0470   28.2610  196.2030 C.3   490  MET490      0.0401
    141  CG        74.4220   28.1280  194.9140 C.3   490  MET490      0.0596
    142  SD        74.4920   29.7270  194.3570 S.3   490  MET490     -0.1393
    143  CE        74.8390   29.4380  192.7590 C.3   490  MET490      0.0692
    144  N         73.5310   26.7270  198.2310 N.am  491  ILE491     -0.1980
    145  CA        72.7390   25.5800  198.5870 C.3   491  ILE491      0.1595
    146  C         71.7690   25.8330  199.7630 C.2   491  ILE491      0.2287
    147  O         70.7080   25.2160  199.7940 O.2   491  ILE491     -0.2864
    148  CB        73.6820   24.3620  198.8120 C.3   491  ILE491      0.0276
    149  CG1       74.0040   23.7000  197.4720 C.3   491  ILE491      0.0022
    150  CG2       73.1110   23.3560  199.7880 C.3   491  ILE491      0.0022
    151  CD1       74.6280   22.3260  197.6000 C.3   491  ILE491      0.0001
    152  N         69.7420   28.9730  198.0550 N.3   494  GLY494     -0.1210
    153  CA        69.2960   28.4720  196.7690 C.3   494  GLY494      0.1956
    154  C         68.2750   27.3570  196.7100 C.2   494  GLY494      0.2611
    155  O         67.6500   27.1880  195.6720 O.2   494  GLY494     -0.2717
    156  N         68.1120   26.5830  197.7830 N.am  495  ALA495     -0.1979
    157  CA        67.1340   25.4920  197.8170 C.3   495  ALA495      0.1597
    158  C         65.7390   25.9410  198.2180 C.2   495  ALA495      0.2287
    159  O         64.7780   25.6450  197.5410 O.2   495  ALA495     -0.2864
    160  CB        67.6090   24.3620  198.7420 C.3   495  ALA495      0.0319
    161  N         64.0970   27.6020  195.7490 N.3   498  SER498     -0.1202
    162  CA        63.8640   26.5680  194.7130 C.3   498  SER498      0.2020
    163  C         62.9680   25.3590  195.0180 C.2   498  SER498      0.2618
    164  O         62.6160   24.6060  194.1060 O.2   498  SER498     -0.2717
    165  CB        65.1900   26.1270  194.0400 C.3   498  SER498      0.2103
    166  OG        65.0320   25.7540  192.6630 O.3   498  SER498     -0.2182
    167  N         62.5920   25.1700  196.2730 N.am  499  LEU499     -0.1979
    168  CA        61.7050   24.0730  196.6210 C.3   499  LEU499      0.1596
    169  C         60.3030   24.6260  196.8170 C.2   499  LEU499      0.2287
    170  O         59.3490   24.1490  196.2060 O.2   499  LEU499     -0.2864
    171  CB        62.1510   23.3840  197.8910 C.3   499  LEU499      0.0297
    172  CG        62.7020   21.9720  197.8040 C.3   499  LEU499      0.0022
    173  CD1       62.3180   21.3340  199.1040 C.3   499  LEU499      0.0001
    174  CD2       62.1450   21.2140  196.6360 C.3   499  LEU499      0.0001
@<TRIPOS>BOND
     1   114   113    2
     2   113   112    1
     3    36    34   ar
     4    36    37   ar
     5    34    32   ar
     6   112   111    1
     7   112   115    1
     8   115   116    1
     9    38    37    1
    10    37    35   ar
    11    32    31    1
    12    32    33   ar
    13    31    28    1
    14   121   123   ar
    15   121   118   ar
    16   102   101    2
    17    28    27    1
    18    28    29    1
    19   123   124   ar
    20   116   118   ar
    21   116   117   ar
    22    35    33   ar
    23   118   120   ar
    24   101   100    1
    25   105   107   ar
    26   105   104   ar
    27   107   109   ar
    28   104   103    1
    29   104   106   ar
    30   103   100    1
    31   117   119   ar
    32   109   110    1
    33   109   108   ar
    34    29    30    2
    35    29    39   am
    36   124   122   ar
    37   120   122   ar
    38   120   119   ar
    39   100    99    1
    40   106   108   ar
    41    53    51    1
    42    39    40    1
    43    51    52    1
    44    51    50    1
    45    99    93   am
    46    46    47    1
    47    83    82    2
    48    94    93    2
    49    93    92    1
    50    40    41    1
    51    40    43    1
    52    82    81    1
    53    47    50    1
    54    47    48    1
    55    89    90   ar
    56    89    87   ar
    57    90    88   ar
    58    91    92    1
    59    45    43    1
    60   166   165    1
    61    87    85   ar
    62    41    42    2
    63   143   142    1
    64   134   132   ar
    65   134   135   ar
    66   132   130   ar
    67    92    95    1
    68    43    44    1
    69    88    86   ar
    70    85    86   ar
    71    85    84    1
    72   135   133   ar
    73    48    49    2
    74    48    54   am
    75    81    84    1
    76    81    80    1
    77   125   126    1
    78   130   129    1
    79   130   131   ar
    80   129   126    1
    81   165   162    1
    82   164   163    2
    83    95    96    1
    84   133   131   ar
    85   142   141    1
    86    54    55    1
    87    75    74    2
    88   126   127    1
    89   162   163    1
    90   162   161    1
    91    96    98    1
    92    96    97    1
    93   141   140    1
    94   163   167   am
    95    78    77    1
    96    74    73    1
    97   155   154    2
    98    76    77    1
    99    76    73    1
   100    55    56    1
   101    55    58    1
   102    59    58    1
   103    56    57    2
   104    63    62    2
   105   127   128    2
   106    77    79    1
   107   140   137    1
   108   170   169    2
   109    72    73    1
   110   167   168    1
   111   168   169    1
   112   168   171    1
   113   174   172    1
   114    60    61    1
   115   154   153    1
   116   154   156   am
   117   153   152    1
   118   139   138    2
   119    62    61    1
   120   137   138    1
   121   137   136    1
   122   149   151    1
   123   149   148    1
   124   138   144   am
   125   159   158    2
   126    61    64    1
   127   156   157    1
   128   172   171    1
   129   172   173    1
   130   157   158    1
   131   157   160    1
   132    64    65    1
   133   144   145    1
   134     7     8    1
   135     7     6    1
   136   145   148    1
   137   145   146    1
   138    66    65   ar
   139    66    68   ar
   140   148   150    1
   141    65    67   ar
   142    68    70   ar
   143   146   147    2
   144    67    69   ar
   145     6     5    1
   146    70    69   ar
   147    70    71    1
   148     5     2    1
   149    14    13    1
   150    22    21    1
   151    22    23    1
   152    25    24    1
   153    21    20    1
   154    23    24    2
   155    24    26    1
   156     2     3    1
   157     2     1    1
   158    20    17    1
   159     4     3    2
   160    13    15    1
   161    13    10    1
   162    11    12    2
   163    11    10    1
   164    19    18    2
   165    18    17    1
   166    17    16    1
   167    10     9    1
