@<TRIPOS>MOLECULE
tmp/1pgnA01.pdb
 96 86 0 0 0
SMALL
GASTEIGER

@<TRIPOS>ATOM
      1  N         16.6030   22.8330   47.6900 N.3    13  MET13      -0.1245
      2  CA        16.0120   22.8520   46.3540 C.3    13  MET13       0.1570
      3  C         14.9700   21.7360   46.1120 C.2    13  MET13       0.2261
      4  O         13.8190   22.0260   45.7590 O.2    13  MET13      -0.2867
      5  CB        17.1270   22.7240   45.3240 C.3    13  MET13       0.0387
      6  CG        16.7620   23.1850   43.9160 C.3    13  MET13       0.0595
      7  SD        17.1790   24.9180   43.6730 S.3    13  MET13      -0.1393
      8  CE        15.9950   25.3790   42.4120 C.3    13  MET13       0.0692
      9  N         23.7270   16.7790   42.4510 N.3    75  LYS75      -0.1245
     10  CA        24.6760   17.6060   41.7020 C.3    75  LYS75       0.1561
     11  C         25.4160   16.6800   40.7580 C.2    75  LYS75       0.2260
     12  O         25.6700   15.5020   41.0310 O.2    75  LYS75      -0.2867
     13  CB        25.7140   18.3330   42.5830 C.3    75  LYS75       0.0271
     14  CG        26.6200   19.3790   41.8650 C.3    75  LYS75       0.0035
     15  CD        25.9220   20.4440   40.9790 C.3    75  LYS75       0.0206
     16  CE        25.7460   21.7840   41.6940 C.3    75  LYS75       0.1093
     17  NZ        24.9760   22.7700   40.8800 N.3    75  LYS75      -0.1314
     18  N         22.1670   20.8490   36.9770 N.3   102  ASN102     -0.1240
     19  CA        22.8380   21.6580   35.9560 C.3   102  ASN102      0.1653
     20  C         23.8700   20.7840   35.2620 C.2   102  ASN102      0.2266
     21  O         25.0760   20.8930   35.4890 O.2   102  ASN102     -0.2867
     22  CB        23.5900   22.8720   36.5510 C.3   102  ASN102      0.1155
     23  CG        22.7430   23.7630   37.4180 C.2   102  ASN102      0.2627
     24  OD1       23.0030   23.8980   38.6120 O.2   102  ASN102     -0.2716
     25  ND2       21.6960   24.3420   36.8850 N.am  102  ASN102     -0.0877
     26  N         16.5070   24.1220   35.9430 N.3   127  VAL127     -0.1231
     27  CA        15.6140   24.6720   36.9600 C.3   127  VAL127      0.1692
     28  C         16.1880   26.0250   37.3700 C.2   127  VAL127      0.2593
     29  O         17.4080   26.1190   37.5460 O.2   127  VAL127     -0.2718
     30  CB        15.5540   23.7250   38.1630 C.3   127  VAL127      0.0266
     31  CG1       14.6490   24.2930   39.2390 C.3   127  VAL127      0.0020
     32  CG2       15.0120   22.3810   37.7070 C.3   127  VAL127      0.0020
     33  N         15.4020   27.0770   37.5180 N.am  128  SER128     -0.1938
     34  CA        15.9650   28.3370   37.9450 C.3   128  SER128      0.2055
     35  C         14.9740   28.9640   38.8930 C.2   128  SER128      0.2644
     36  O         13.7660   28.6800   38.8900 O.2   128  SER128     -0.2714
     37  CB        16.2160   29.2840   36.7540 C.3   128  SER128      0.2130
     38  OG        17.0590   30.3820   37.1200 O.3   128  SER128     -0.2179
     39  N         15.5930   29.8420   39.6710 N.am  129  GLY129     -0.1939
     40  CA        14.9020   30.5810   40.7150 C.3   129  GLY129      0.2014
     41  C         15.6010   30.4870   42.0630 C.2   129  GLY129      0.2639
     42  O         15.5160   31.4200   42.8460 O.2   129  GLY129     -0.2714
     43  N         16.2960   29.3930   42.3400 N.am  130  GLY130     -0.1954
     44  CA        16.8970   29.1750   43.6390 C.3   130  GLY130      0.1869
     45  C         15.8190   28.6390   44.5710 C.2   130  GLY130      0.2309
     46  O         14.7260   28.2920   44.1040 O.2   130  GLY130     -0.2863
     47  N         19.4680   26.5440   29.6910 N.3   183  LYS183     -0.1245
     48  CA        19.7860   26.8310   31.0800 C.3   183  LYS183      0.1561
     49  C         21.1750   27.4450   31.2460 C.2   183  LYS183      0.2260
     50  O         21.3080   28.4680   31.9290 O.2   183  LYS183     -0.2867
     51  CB        19.6470   25.5270   31.8720 C.3   183  LYS183      0.0271
     52  CG        20.1170   25.4970   33.3160 C.3   183  LYS183      0.0035
     53  CD        19.3810   26.4750   34.1960 C.3   183  LYS183      0.0206
     54  CE        20.0360   26.4470   35.5460 C.3   183  LYS183      0.1093
     55  NZ        19.8360   27.7140   36.2720 N.3   183  LYS183     -0.1314
     56  N         22.3070   31.3470   32.6270 N.3   187  ASN187     -0.1240
     57  CA        23.3190   31.6670   33.6200 C.3   187  ASN187      0.1653
     58  C         24.4030   32.5260   33.0350 C.2   187  ASN187      0.2266
     59  O         24.8790   33.4070   33.7610 O.2   187  ASN187     -0.2867
     60  CB        24.0120   30.4470   34.1800 C.3   187  ASN187      0.1155
     61  CG        23.1390   29.6610   35.1140 C.2   187  ASN187      0.2627
     62  OD1       21.9290   29.8430   35.2170 O.2   187  ASN187     -0.2716
     63  ND2       23.7460   28.7870   35.8760 N.am  187  ASN187     -0.0877
     64  N         23.0890   35.8070   33.0570 N.3   190  GLU190     -0.1245
     65  CA        22.9820   36.2240   34.4480 C.3   190  GLU190      0.1567
     66  C         24.3100   36.8420   34.8610 C.2   190  GLU190      0.2260
     67  O         24.3090   37.9330   35.4430 O.2   190  GLU190     -0.2867
     68  CB        22.6660   34.9990   35.2560 C.3   190  GLU190      0.0388
     69  CG        22.3530   35.1070   36.7190 C.3   190  GLU190      0.1160
     70  CD        22.4410   33.7190   37.3170 C.2   190  GLU190      0.3649
     71  OE1       21.4690   32.9390   37.2290 O.co2 190  GLU190     -0.2457
     72  OE2       23.5250   33.3880   37.8490 O.co2 190  GLU190     -0.2457
     73  N         30.4110   28.6010   39.7070 N.3   260  LYS260     -0.1245
     74  CA        30.3600   27.1490   39.6780 C.3   260  LYS260      0.1561
     75  C         30.2370   26.7080   38.2010 C.2   260  LYS260      0.2260
     76  O         29.3280   25.9780   37.7710 O.2   260  LYS260     -0.2867
     77  CB        29.1590   26.6100   40.5180 C.3   260  LYS260      0.0271
     78  CG        28.9750   27.0730   41.9770 C.3   260  LYS260      0.0035
     79  CD        30.1830   27.0350   42.8960 C.3   260  LYS260      0.0206
     80  CE        30.3160   25.7400   43.6730 C.3   260  LYS260      0.1093
     81  NZ        31.4520   25.8680   44.6300 N.3   260  LYS260     -0.1314
     82  N         28.9490   27.2910   35.1510 N.3   262  THR262     -0.1218
     83  CA        28.0750   27.4910   33.9930 C.3   262  THR262      0.1862
     84  C         28.3940   28.6360   33.0290 C.2   262  THR262      0.2287
     85  O         28.3930   28.4280   31.8080 O.2   262  THR262     -0.2866
     86  CB        26.6110   27.6730   34.4070 C.3   262  THR262      0.1770
     87  OG1       26.5060   28.4090   35.6430 O.3   262  THR262     -0.2211
     88  CG2       25.9610   26.3000   34.4790 C.3   262  THR262      0.0375
     89  N         16.3770   34.0820   37.7360 N.3   366  ILE366     -0.1245
     90  CA        17.1270   35.2270   38.2650 C.3   366  ILE366      0.1561
     91  C         17.2130   36.4100   37.2910 C.2   366  ILE366      0.2260
     92  O         17.2120   37.5640   37.7230 O.2   366  ILE366     -0.2867
     93  CB        18.5360   34.7270   38.6730 C.3   366  ILE366      0.0252
     94  CG1       18.3760   33.6180   39.7080 C.3   366  ILE366      0.0019
     95  CG2       19.3470   35.8230   39.3100 C.3   366  ILE366      0.0019
     96  CD1       19.6150   32.8110   39.9100 C.3   366  ILE366      0.0001
@<TRIPOS>BOND
     1    47    48    1
     2    48    49    1
     3    48    51    1
     4    49    50    2
     5    85    84    2
     6    51    52    1
     7    56    57    1
     8    84    83    1
     9    58    57    1
    10    58    59    2
    11    64    65    1
    12    52    53    1
    13    57    60    1
    14    83    86    1
    15    83    82    1
    16    60    61    1
    17    53    54    1
    18    86    88    1
    19    86    87    1
    20    65    66    1
    21    65    68    1
    22    66    67    2
    23    61    62    2
    24    61    63   am
    25    68    69    1
    26    20    21    2
    27    20    19    1
    28    54    55    1
    29    26    27    1
    30    19    22    1
    31    19    18    1
    32    22    23    1
    33    69    70    1
    34    37    38    1
    35    37    34    1
    36    25    23   am
    37    27    28    1
    38    27    30    1
    39    71    70   ar
    40    91    92    2
    41    91    90    1
    42    70    72   ar
    43    28    33   am
    44    28    29    2
    45    23    24    2
    46    33    34    1
    47    32    30    1
    48    89    90    1
    49    76    75    2
    50    34    35    1
    51    30    31    1
    52    75    74    1
    53    90    93    1
    54    93    95    1
    55    93    94    1
    56    36    35    2
    57    35    39   am
    58    39    40    1
    59    74    73    1
    60    74    77    1
    61    94    96    1
    62    77    78    1
    63    40    41    1
    64    11    12    2
    65    11    10    1
    66    17    16    1
    67    15    16    1
    68    15    14    1
    69    10     9    1
    70    10    13    1
    71    14    13    1
    72    78    79    1
    73    41    43   am
    74    41    42    2
    75    43    44    1
    76     8     7    1
    77    79    80    1
    78    44    45    1
    79    80    81    1
    80     7     6    1
    81     6     5    1
    82    46    45    2
    83     5     2    1
    84     4     3    2
    85     3     2    1
    86     2     1    1
