@<TRIPOS>MOLECULE
tmp/1pgpA00.pdb
 141 132 0 0 0
SMALL
GASTEIGER

@<TRIPOS>ATOM
      1  N         16.7150   22.7270   47.6120 N.3    13  MET13      -0.1245
      2  CA        16.1130   22.8100   46.2730 C.3    13  MET13       0.1570
      3  C         15.1000   21.6920   46.0400 C.2    13  MET13       0.2261
      4  O         13.9860   21.9790   45.6170 O.2    13  MET13      -0.2867
      5  CB        17.1780   22.7080   45.1760 C.3    13  MET13       0.0387
      6  CG        17.7730   23.9970   44.6470 C.3    13  MET13       0.0595
      7  SD        16.6500   24.8860   43.5500 S.3    13  MET13      -0.1393
      8  CE        17.0960   24.1860   41.9630 C.3    13  MET13       0.0692
      9  N         22.3630   21.0130   37.2800 N.3   102  ASN102     -0.1240
     10  CA        23.0540   21.7980   36.2510 C.3   102  ASN102      0.1653
     11  C         24.1230   20.9470   35.5560 C.2   102  ASN102      0.2266
     12  O         25.3130   20.9270   35.8530 O.2   102  ASN102     -0.2867
     13  CB        23.6510   23.0570   36.9070 C.3   102  ASN102      0.1155
     14  CG        22.6770   24.2280   36.9890 C.2   102  ASN102      0.2627
     15  OD1       22.7660   25.1850   36.2240 O.2   102  ASN102     -0.2716
     16  ND2       21.7300   24.2270   37.9010 N.am  102  ASN102     -0.0877
     17  N         16.6590   24.1550   36.1100 N.3   127  VAL127     -0.1231
     18  CA        15.7500   24.8170   37.0400 C.3   127  VAL127      0.1692
     19  C         16.4780   26.1070   37.4210 C.2   127  VAL127      0.2593
     20  O         17.6870   26.0780   37.6770 O.2   127  VAL127     -0.2718
     21  CB        15.5280   23.9780   38.3170 C.3   127  VAL127      0.0266
     22  CG1       14.4550   24.6280   39.1950 C.3   127  VAL127      0.0020
     23  CG2       15.1560   22.5630   37.9210 C.3   127  VAL127      0.0020
     24  N         15.7160   27.1810   37.4370 N.am  128  SER128     -0.1938
     25  CA        16.2440   28.4720   37.8010 C.3   128  SER128      0.2055
     26  C         15.2750   29.0970   38.8020 C.2   128  SER128      0.2644
     27  O         14.0600   28.8990   38.7250 O.2   128  SER128     -0.2714
     28  CB        16.3880   29.3090   36.5200 C.3   128  SER128      0.2130
     29  OG        16.9730   30.5930   36.7480 O.3   128  SER128     -0.2179
     30  N         15.8190   29.8400   39.7520 N.am  129  GLY129     -0.1939
     31  CA        14.9890   30.5070   40.7350 C.3   129  GLY129      0.2014
     32  C         15.5400   30.4000   42.1330 C.2   129  GLY129      0.2639
     33  O         15.2670   31.2920   42.9320 O.2   129  GLY129     -0.2714
     34  N         16.3220   29.3570   42.4320 N.am  130  GLY130     -0.1954
     35  CA        16.8800   29.1760   43.7660 C.3   130  GLY130      0.1869
     36  C         15.8560   28.6610   44.7550 C.2   130  GLY130      0.2309
     37  O         14.7480   28.3500   44.3270 O.2   130  GLY130     -0.2863
     38  N         19.5910   26.5900   29.7090 N.3   183  LYS183     -0.1245
     39  CA        19.8460   26.8790   31.1260 C.3   183  LYS183      0.1561
     40  C         21.2350   27.4990   31.3020 C.2   183  LYS183      0.2260
     41  O         21.3780   28.5180   31.9800 O.2   183  LYS183     -0.2867
     42  CB        19.7230   25.5790   31.9770 C.3   183  LYS183      0.0271
     43  CG        20.0250   25.7550   33.4570 C.3   183  LYS183      0.0035
     44  CD        19.1110   26.8080   34.0770 C.3   183  LYS183      0.0206
     45  CE        19.7630   27.6290   35.1560 C.3   183  LYS183      0.1093
     46  NZ        20.2230   26.7860   36.2940 N.3   183  LYS183     -0.1314
     47  N         21.2490   30.9600   29.9730 N.3   186  HIS186     -0.1226
     48  CA        20.5580   31.7710   30.9640 C.3   186  HIS186      0.1752
     49  C         21.5890   32.2780   31.9770 C.2   186  HIS186      0.2596
     50  O         21.6530   33.4740   32.2500 O.2   186  HIS186     -0.2718
     51  CB        19.4510   30.9220   31.6630 C.3   186  HIS186      0.0759
     52  CG        19.0520   31.4530   33.0060 C.ar  186  HIS186      0.0818
     53  ND1       18.2830   32.5780   33.2610 N.ar  186  HIS186     -0.2268
     54  CD2       19.5090   31.0840   34.2190 C.ar  186  HIS186      0.1154
     55  CE1       18.2880   32.8710   34.5440 C.ar  186  HIS186      0.1986
     56  NE2       19.0290   31.9710   35.1420 N.ar  186  HIS186     -0.2212
     57  N         22.3890   31.3740   32.5090 N.am  187  ASN187     -0.1974
     58  CA        23.4010   31.7170   33.4950 C.3   187  ASN187      0.1688
     59  C         24.4690   32.6440   32.9560 C.2   187  ASN187      0.2292
     60  O         24.9120   33.5550   33.6650 O.2   187  ASN187     -0.2864
     61  CB        24.0250   30.4510   34.0150 C.3   187  ASN187      0.1181
     62  CG        23.2230   29.8420   35.1410 C.2   187  ASN187      0.2629
     63  OD1       22.0140   29.9970   35.2650 O.2   187  ASN187     -0.2716
     64  ND2       23.8890   29.1690   36.0390 N.am  187  ASN187     -0.0877
     65  N         23.1060   35.9450   32.9610 N.3   190  GLU190     -0.1231
     66  CA        23.0450   36.3810   34.3600 C.3   190  GLU190      0.1699
     67  C         24.3940   36.9950   34.7730 C.2   190  GLU190      0.2592
     68  O         24.4390   38.0840   35.3620 O.2   190  GLU190     -0.2718
     69  CB        22.7000   35.1640   35.2130 C.3   190  GLU190      0.0402
     70  CG        22.8100   35.2720   36.7250 C.3   190  GLU190      0.1161
     71  CD        22.6650   33.9290   37.4100 C.2   190  GLU190      0.3649
     72  OE1       21.5310   33.4270   37.5010 O.co2 190  GLU190     -0.2457
     73  OE2       23.6860   33.3600   37.8580 O.co2 190  GLU190     -0.2457
     74  N         25.4870   36.3260   34.4120 N.am  191  TYR191     -0.1976
     75  CA        26.8450   36.8100   34.6810 C.3   191  TYR191      0.1639
     76  C         27.0720   38.2100   34.0790 C.2   191  TYR191      0.2290
     77  O         27.6180   39.1190   34.7160 O.2   191  TYR191     -0.2864
     78  CB        27.8960   35.8290   34.0900 C.3   191  TYR191      0.0560
     79  CG        28.4020   34.6530   34.9050 C.ar  191  TYR191     -0.0198
     80  CD1       27.5500   33.8320   35.6420 C.ar  191  TYR191     -0.0009
     81  CD2       29.7680   34.3190   34.8560 C.ar  191  TYR191     -0.0009
     82  CE1       28.0290   32.7040   36.2850 C.ar  191  TYR191      0.0417
     83  CE2       30.2540   33.1940   35.4990 C.ar  191  TYR191      0.0417
     84  CZ        29.3700   32.3950   36.2250 C.ar  191  TYR191      0.1957
     85  OH        29.8320   31.2780   36.8850 O.3   191  TYR191     -0.2866
     86  N         25.0740   40.9530   35.8540 N.3   194  MET194     -0.1245
     87  CA        25.7240   41.2390   37.1450 C.3   194  MET194      0.1570
     88  C         26.9450   42.1160   36.9230 C.2   194  MET194      0.2261
     89  O         27.0620   43.1640   37.5640 O.2   194  MET194     -0.2867
     90  CB        26.1190   39.9070   37.8490 C.3   194  MET194      0.0387
     91  CG        24.8960   39.2420   38.4870 C.3   194  MET194      0.0595
     92  SD        25.1160   37.4870   38.7980 S.3   194  MET194     -0.1393
     93  CE        26.1300   37.4990   40.2710 C.3   194  MET194      0.0692
     94  N         33.1350   34.1840   42.8850 N.3   258  GLY258     -0.1210
     95  CA        33.1330   32.7640   42.5970 C.3   258  GLY258      0.1956
     96  C         32.4720   32.4460   41.2580 C.2   258  GLY258      0.2612
     97  O         31.8930   33.3090   40.5820 O.2   258  GLY258     -0.2717
     98  N         32.5350   31.1700   40.9140 N.am  259  GLN259     -0.1965
     99  CA        32.0250   30.6440   39.6610 C.3   259  GLN259      0.1733
    100  C         31.8310   29.1550   39.8260 C.2   259  GLN259      0.2616
    101  O         32.7000   28.5170   40.4330 O.2   259  GLN259     -0.2715
    102  CB        32.9780   30.7570   38.5260 C.3   259  GLN259      0.0408
    103  CG        33.1320   32.0810   37.8920 C.3   259  GLN259      0.0908
    104  CD        33.9840   31.9030   36.6660 C.2   259  GLN259      0.2608
    105  OE1       33.5850   31.1800   35.7470 O.2   259  GLN259     -0.2717
    106  NE2       35.1410   32.5320   36.6370 N.am  259  GLN259     -0.0878
    107  N         30.7510   28.6230   39.2660 N.am  260  LYS260     -0.1977
    108  CA        30.5190   27.1950   39.2800 C.3   260  LYS260      0.1596
    109  C         30.3520   26.6500   37.8520 C.2   260  LYS260      0.2287
    110  O         29.4730   25.8300   37.5580 O.2   260  LYS260     -0.2864
    111  CB        29.3020   26.9420   40.1910 C.3   260  LYS260      0.0298
    112  CG        29.7290   26.9180   41.6630 C.3   260  LYS260      0.0038
    113  CD        28.7330   26.3140   42.6520 C.3   260  LYS260      0.0206
    114  CE        29.5230   25.5040   43.7040 C.3   260  LYS260      0.1093
    115  NZ        28.7150   25.0800   44.8900 N.3   260  LYS260     -0.1314
    116  N         28.9480   27.1360   34.9180 N.3   262  THR262     -0.1218
    117  CA        27.9140   27.4170   33.9180 C.3   262  THR262      0.1862
    118  C         28.1660   28.6560   33.0460 C.2   262  THR262      0.2287
    119  O         27.8810   28.6010   31.8490 O.2   262  THR262     -0.2866
    120  CB        26.5320   27.5580   34.6040 C.3   262  THR262      0.1770
    121  OG1       26.6630   28.2810   35.8450 O.3   262  THR262     -0.2211
    122  CG2       25.9290   26.1820   34.7960 C.3   262  THR262      0.0375
    123  N         35.4770   37.9570   36.4220 N.3   287  ARG287     -0.1245
    124  CA        35.4670   37.2340   37.7080 C.3   287  ARG287      0.1563
    125  C         36.8420   36.6190   38.0030 C.2   287  ARG287      0.2260
    126  O         37.3870   36.7670   39.1070 O.2   287  ARG287     -0.2867
    127  CB        34.3980   36.1190   37.7340 C.3   287  ARG287      0.0307
    128  CG        32.9390   36.5980   37.7200 C.3   287  ARG287      0.0489
    129  CD        31.9740   35.4760   38.0340 C.3   287  ARG287      0.2205
    130  NE        30.5840   35.9250   38.0710 N.pl3 287  ARG287     -0.0865
    131  CZ        29.5640   35.2700   38.6310 C.cat 287  ARG287      0.5346
    132  NH1       29.7130   34.1090   39.2490 N.pl3 287  ARG287      0.1354
    133  NH2       28.3350   35.7300   38.4770 N.pl3 287  ARG287      0.1354
    134  N         16.3350   34.1430   37.7490 N.3   366  ILE366     -0.1245
    135  CA        17.1560   35.2620   38.2150 C.3   366  ILE366      0.1561
    136  C         17.0740   36.4440   37.2380 C.2   366  ILE366      0.2260
    137  O         17.3560   37.5960   37.5730 O.2   366  ILE366     -0.2867
    138  CB        18.6220   34.7810   38.3740 C.3   366  ILE366      0.0252
    139  CG1       18.6950   33.4900   39.2310 C.3   366  ILE366      0.0019
    140  CG2       19.4370   35.8640   39.0380 C.3   366  ILE366      0.0019
    141  CD1       18.6230   33.4970   40.7420 C.3   366  ILE366      0.0001
@<TRIPOS>BOND
     1    38    39    1
     2    47    48    1
     3    48    51    1
     4    48    49    1
     5    39    40    1
     6    39    42    1
     7    40    41    2
     8    51    52    1
     9   119   118    2
    10    49    50    2
    11    49    57   am
    12    42    43    1
    13    57    58    1
    14    59    58    1
    15    59    60    2
    16    65    66    1
    17    52    53   ar
    18    52    54   ar
    19   118   117    1
    20    53    55   ar
    21    43    44    1
    22    58    61    1
    23   117   120    1
    24   117   116    1
    25    61    62    1
    26    44    45    1
    27    76    75    1
    28    76    77    2
    29    78    75    1
    30    78    79    1
    31    54    56   ar
    32    66    67    1
    33    66    69    1
    34    74    75    1
    35    74    67   am
    36    55    56   ar
    37   120   122    1
    38   120   121    1
    39    67    68    2
    40    81    79   ar
    41    81    83   ar
    42    79    80   ar
    43    62    63    2
    44    62    64   am
    45    45    46    1
    46    69    70    1
    47    83    84   ar
    48    11    12    2
    49    11    10    1
    50    80    82   ar
    51   105   104    2
    52    86    87    1
    53    17    18    1
    54    15    14    2
    55    84    82   ar
    56    84    85    1
    57    10    13    1
    58    10     9    1
    59   123   124    1
    60    28    29    1
    61    28    25    1
    62   106   104   am
    63   104   103    1
    64    70    71    1
    65    13    14    1
    66    88    87    1
    67    88    89    2
    68    14    16   am
    69    18    19    1
    70    18    21    1
    71    87    90    1
    72   136   137    2
    73   136   135    1
    74    71    72   ar
    75    71    73   ar
    76    19    24   am
    77    19    20    2
    78    24    25    1
    79   110   109    2
    80   124   127    1
    81   124   125    1
    82   128   127    1
    83   128   129    1
    84   134   135    1
    85    25    26    1
    86    90    91    1
    87   109   108    1
    88   103   102    1
    89    23    21    1
    90   125   126    2
    91   129   130    1
    92   130   131    2
    93   135   138    1
    94    21    22    1
    95   138   140    1
    96   138   139    1
    97   133   131    1
    98    91    92    1
    99   102    99    1
   100   131   132    1
   101    27    26    2
   102    92    93    1
   103    26    30   am
   104   139   141    1
   105   107   108    1
   106   107   100   am
   107   108   111    1
   108    99   100    1
   109    99    98    1
   110    30    31    1
   111   100   101    2
   112   111   112    1
   113    97    96    2
   114    31    32    1
   115    98    96   am
   116    96    95    1
   117   112   113    1
   118     8     7    1
   119    32    34   am
   120    32    33    2
   121    34    35    1
   122    95    94    1
   123   113   114    1
   124     7     6    1
   125   114   115    1
   126    35    36    1
   127    37    36    2
   128     6     5    1
   129     5     2    1
   130     4     3    2
   131     3     2    1
   132     2     1    1
