@<TRIPOS>MOLECULE
tmp/1pgqA00.pdb
 109 104 0 0 0
SMALL
GASTEIGER

@<TRIPOS>ATOM
      1  N         16.8750   13.5490   45.8440 N.3     9  GLY9       -0.1210
      2  CA        17.7300   14.6940   46.0970 C.3     9  GLY9        0.1956
      3  C         17.1700   15.6640   47.1190 C.2     9  GLY9        0.2612
      4  O         16.6750   16.7430   46.7770 O.2     9  GLY9       -0.2717
      5  N         17.3500   15.3080   48.3940 N.am   10  LEU10      -0.1965
      6  CA        16.8110   16.0840   49.5080 C.3    10  LEU10       0.1728
      7  C         17.6360   17.2320   50.0750 C.2    10  LEU10       0.2616
      8  O         17.7380   17.4620   51.2740 O.2    10  LEU10      -0.2715
      9  CB        16.4600   15.1140   50.6220 C.3    10  LEU10       0.0311
     10  CG        15.3880   14.1200   50.3030 C.3    10  LEU10       0.0022
     11  CD1       15.0320   13.5070   51.6150 C.3    10  LEU10       0.0001
     12  CD2       14.1660   14.7470   49.6600 C.3    10  LEU10       0.0001
     13  N         18.2050   17.9700   49.1580 N.am   11  ALA11      -0.1977
     14  CA        18.9220   19.1860   49.4930 C.3    11  ALA11       0.1597
     15  C         17.8140   20.2430   49.5750 C.2    11  ALA11       0.2287
     16  O         16.6750   19.9230   49.2120 O.2    11  ALA11      -0.2864
     17  CB        19.8930   19.4800   48.3710 C.3    11  ALA11       0.0319
     18  N         16.5130    9.7000   48.7770 N.3    32  ASN32      -0.1225
     19  CA        17.8170   10.3400   48.8800 C.3    32  ASN32       0.1785
     20  C         18.8480    9.2440   49.1710 C.2    32  ASN32       0.2597
     21  O         18.4650    8.1910   49.6890 O.2    32  ASN32      -0.2718
     22  CB        17.7710   11.3860   50.0070 C.3    32  ASN32       0.1169
     23  CG        19.0790   12.1100   50.1620 C.2    32  ASN32       0.2627
     24  OD1       19.8250   11.8420   51.0960 O.2    32  ASN32      -0.2716
     25  ND2       19.3940   12.9520   49.1910 N.am   32  ASN32      -0.0877
     26  N         20.1110    9.4720   48.8230 N.am   33  ARG33      -0.1966
     27  CA        21.1910    8.5170   49.0030 C.3    33  ARG33       0.1729
     28  C         21.3920    8.2150   50.4910 C.2    33  ARG33       0.2616
     29  O         21.3960    7.0350   50.8860 O.2    33  ARG33      -0.2715
     30  CB        22.3930    9.1400   48.3640 C.3    33  ARG33       0.0348
     31  CG        23.7370    8.5190   48.5910 C.3    33  ARG33       0.0492
     32  CD        24.5670    9.5890   47.9640 C.3    33  ARG33       0.2205
     33  NE        25.9980    9.4400   48.1140 N.pl3  33  ARG33      -0.0865
     34  CZ        26.8030   10.4320   48.4660 C.cat  33  ARG33       0.5346
     35  NH1       26.3490   11.6500   48.7310 N.pl3  33  ARG33       0.1354
     36  NH2       28.1010   10.2010   48.4900 N.pl3  33  ARG33       0.1354
     37  N         21.5990    9.2360   51.3210 N.am   34  THR34      -0.1951
     38  CA        21.6450    8.9860   52.7460 C.3    34  THR34       0.1897
     39  C         20.2070    9.1650   53.2310 C.2    34  THR34       0.2313
     40  O         19.6740   10.2180   53.5850 O.2    34  THR34      -0.2863
     41  CB        22.6390    9.9600   53.3860 C.3    34  THR34       0.1794
     42  OG1       22.5540   11.2370   52.7700 O.3    34  THR34      -0.2208
     43  CG2       24.0580    9.4500   53.1630 C.3    34  THR34       0.0378
     44  N         18.1230   11.3980   55.7540 N.3    37  LYS37      -0.1245
     45  CA        17.5890   12.6910   55.3710 C.3    37  LYS37       0.1561
     46  C         16.1240   12.5800   54.9480 C.2    37  LYS37       0.2260
     47  O         15.3700   13.5230   55.1890 O.2    37  LYS37      -0.2867
     48  CB        18.4540   13.2580   54.2450 C.3    37  LYS37       0.0271
     49  CG        18.8840   14.7070   54.4550 C.3    37  LYS37       0.0035
     50  CD        17.7090   15.6900   54.3570 C.3    37  LYS37       0.0206
     51  CE        18.0710   17.0800   54.8450 C.3    37  LYS37       0.1093
     52  NZ        16.8530   17.9290   54.9490 N.3    37  LYS37      -0.1314
     53  N         17.6160   15.3720   41.1860 N.3    73  LEU73      -0.1231
     54  CA        18.0770   16.6860   41.6220 C.3    73  LEU73       0.1693
     55  C         19.2320   16.4140   42.5680 C.2    73  LEU73       0.2592
     56  O         19.2300   16.7460   43.7550 O.2    73  LEU73      -0.2718
     57  CB        17.0280   17.4590   42.3950 C.3    73  LEU73       0.0284
     58  CG        16.2690   18.5450   41.6920 C.3    73  LEU73       0.0019
     59  CD1       15.7870   19.4730   42.7850 C.3    73  LEU73       0.0001
     60  CD2       17.1310   19.3660   40.7570 C.3    73  LEU73       0.0001
     61  N         20.2190   15.7470   42.0000 N.am   74  VAL74      -0.1966
     62  CA        21.4430   15.3600   42.6940 C.3    74  VAL74       0.1727
     63  C         22.4670   16.3380   42.0960 C.2    74  VAL74       0.2616
     64  O         22.6010   16.4090   40.8600 O.2    74  VAL74      -0.2715
     65  CB        21.7480   13.8720   42.3660 C.3    74  VAL74       0.0290
     66  CG1       23.1820   13.5750   42.6390 C.3    74  VAL74       0.0023
     67  CG2       20.9360   12.9570   43.2540 C.3    74  VAL74       0.0023
     68  N         23.1410   17.1340   42.9300 N.am   75  LYS75      -0.1977
     69  CA        24.1210   18.1330   42.4580 C.3    75  LYS75       0.1596
     70  C         25.1860   17.1880   41.8970 C.2    75  LYS75       0.2287
     71  O         25.6900   16.3220   42.6290 O.2    75  LYS75      -0.2864
     72  CB        24.6940   19.0090   43.6430 C.3    75  LYS75       0.0298
     73  CG        25.1700   20.4610   43.3540 C.3    75  LYS75       0.0038
     74  CD        26.3390   20.6810   42.3790 C.3    75  LYS75       0.0206
     75  CE        25.9720   21.5580   41.1810 C.3    75  LYS75       0.1093
     76  NZ        25.0300   20.8840   40.2430 N.3    75  LYS75      -0.1314
     77  N         28.9760   12.9280   37.6520 N.3    78  GLN78      -0.1231
     78  CA        29.0020   11.4870   37.9250 C.3    78  GLN78       0.1698
     79  C         27.7360   10.9060   38.5640 C.2    78  GLN78       0.2592
     80  O         27.1130    9.9850   38.0330 O.2    78  GLN78      -0.2718
     81  CB        30.2360   11.2130   38.8260 C.3    78  GLN78       0.0381
     82  CG        30.4290    9.8380   39.4770 C.3    78  GLN78       0.0905
     83  CD        30.8330    8.6960   38.5470 C.2    78  GLN78       0.2608
     84  OE1       31.3280    7.6870   39.0440 O.2    78  GLN78      -0.2717
     85  NE2       30.6800    8.7150   37.2220 N.am   78  GLN78      -0.0878
     86  N         27.3410   11.4750   39.6920 N.am   79  ALA79      -0.1980
     87  CA        26.2200   10.9740   40.4750 C.3    79  ALA79       0.1597
     88  C         24.9190   10.7210   39.7160 C.2    79  ALA79       0.2287
     89  O         24.1820    9.7970   40.0660 O.2    79  ALA79      -0.2864
     90  CB        26.0210   11.9540   41.5820 C.3    79  ALA79       0.0319
     91  N         25.2690    7.3200   37.7610 N.3    82  ASN82      -0.1225
     92  CA        25.1780    6.2420   38.7440 C.3    82  ASN82       0.1785
     93  C         23.7140    5.9680   39.0880 C.2    82  ASN82       0.2597
     94  O         23.2820    4.8100   39.0870 O.2    82  ASN82      -0.2718
     95  CB        25.9510    6.6100   40.0190 C.3    82  ASN82       0.1169
     96  CG        27.4590    6.7400   39.8560 C.2    82  ASN82       0.2627
     97  OD1       28.1250    6.9530   40.8760 O.2    82  ASN82      -0.2716
     98  ND2       28.0660    6.6440   38.6680 N.am   82  ASN82      -0.0877
     99  N         22.9110    6.9990   39.2990 N.am   83  PHE83      -0.1976
    100  CA        21.5030    6.7820   39.5640 C.3    83  PHE83       0.1639
    101  C         20.7770    6.1930   38.3580 C.2    83  PHE83       0.2290
    102  O         19.9340    5.3070   38.5350 O.2    83  PHE83      -0.2864
    103  CB        20.8790    8.1120   40.0040 C.3    83  PHE83       0.0560
    104  CG        20.7920    8.1790   41.5010 C.ar   83  PHE83      -0.0200
    105  CD1       20.0620    7.2170   42.1980 C.ar   83  PHE83      -0.0042
    106  CD2       21.4940    9.1350   42.2100 C.ar   83  PHE83      -0.0042
    107  CE1       20.0350    7.2060   43.5800 C.ar   83  PHE83      -0.0003
    108  CE2       21.4700    9.1260   43.5910 C.ar   83  PHE83      -0.0003
    109  CZ        20.7440    8.1680   44.2760 C.ar   83  PHE83      -0.0000
@<TRIPOS>BOND
     1    85    83   am
     2    77    78    1
     3    91    92    1
     4    78    79    1
     5    78    81    1
     6    80    79    2
     7   101   102    2
     8   101   100    1
     9    83    84    2
    10    83    82    1
    11    79    86   am
    12    98    96   am
    13    92    93    1
    14    92    95    1
    15    81    82    1
    16    94    93    2
    17    93    99   am
    18    99   100    1
    19   100   103    1
    20    86    87    1
    21    88    89    2
    22    88    87    1
    23    96    95    1
    24    96    97    2
    25   103   104    1
    26    76    75    1
    27    87    90    1
    28    60    58    1
    29    64    63    2
    30    75    74    1
    31    53    54    1
    32   104   105   ar
    33   104   106   ar
    34    54    57    1
    35    54    55    1
    36    58    57    1
    37    58    59    1
    38    70    69    1
    39    70    71    2
    40    61    55   am
    41    61    62    1
    42    63    62    1
    43    63    68   am
    44   105   107   ar
    45   106   108   ar
    46    65    66    1
    47    65    62    1
    48    65    67    1
    49    74    73    1
    50    69    68    1
    51    69    72    1
    52    55    56    2
    53    73    72    1
    54   107   109   ar
    55   108   109   ar
    56     1     2    1
    57     2     3    1
    58     4     3    2
    59     3     5   am
    60    32    33    1
    61    32    31    1
    62    33    34    2
    63    30    31    1
    64    30    27    1
    65    17    14    1
    66     5     6    1
    67    34    36    1
    68    34    35    1
    69    18    19    1
    70    26    27    1
    71    26    20   am
    72    19    20    1
    73    19    22    1
    74    27    28    1
    75    13    14    1
    76    13     7   am
    77    20    21    2
    78    25    23   am
    79    16    15    2
    80    14    15    1
    81     6     7    1
    82     6     9    1
    83    12    10    1
    84    22    23    1
    85     7     8    2
    86    23    24    2
    87    10     9    1
    88    10    11    1
    89    28    29    2
    90    28    37   am
    91    37    38    1
    92    38    39    1
    93    38    41    1
    94    42    41    1
    95    43    41    1
    96    39    40    2
    97    48    49    1
    98    48    45    1
    99    50    49    1
   100    50    51    1
   101    51    52    1
   102    46    47    2
   103    46    45    1
   104    45    44    1
