@<TRIPOS>MOLECULE
tmp/1ph0A00.pdb
 215 206 0 0 0
SMALL
GASTEIGER

@<TRIPOS>ATOM
      1  N         22.4580   16.9010   25.1750 N.3    19  TYR19      -0.1241
      2  CA        23.0260   18.2360   25.0860 C.3    19  TYR19       0.1605
      3  C         22.0140   19.2150   24.5010 C.2    19  TYR19       0.2264
      4  O         21.9390   20.3730   24.9190 O.2    19  TYR19      -0.2867
      5  CB        24.2870   18.2220   24.2160 C.3    19  TYR19       0.0534
      6  CG        24.8530   19.6020   23.9840 C.ar   19  TYR19      -0.0201
      7  CD1       25.3600   20.3530   25.0460 C.ar   19  TYR19      -0.0009
      8  CD2       24.8280   20.1830   22.7150 C.ar   19  TYR19      -0.0009
      9  CE1       25.8220   21.6510   24.8510 C.ar   19  TYR19       0.0417
     10  CE2       25.2840   21.4770   22.5080 C.ar   19  TYR19       0.0417
     11  CZ        25.7780   22.2090   23.5820 C.ar   19  TYR19       0.1957
     12  OH        26.1950   23.5070   23.3930 O.3    19  TYR19      -0.2866
     13  N         20.1660   22.8030   25.9030 N.3    23  ARG23      -0.1245
     14  CA        20.1030   24.0410   25.1340 C.3    23  ARG23       0.1563
     15  C         18.6920   24.6130   25.0640 C.2    23  ARG23       0.2260
     16  O         18.4980   25.8220   25.1820 O.2    23  ARG23      -0.2867
     17  CB        20.6290   23.8170   23.7120 C.3    23  ARG23       0.0307
     18  CG        22.1290   23.5630   23.6160 C.3    23  ARG23       0.0489
     19  CD        22.6050   23.7700   22.1870 C.3    23  ARG23       0.2205
     20  NE        22.2560   25.1080   21.7170 N.pl3  23  ARG23      -0.0865
     21  CZ        22.3140   25.5010   20.4490 C.cat  23  ARG23       0.5346
     22  NH1       22.7100   24.6540   19.5060 N.pl3  23  ARG23       0.1354
     23  NH2       21.9700   26.7420   20.1250 N.pl3  23  ARG23       0.1354
     24  N         17.7520   25.9940   28.4940 N.3    26  ALA26      -0.1231
     25  CA        18.5930   27.1130   28.9240 C.3    26  ALA26       0.1694
     26  C         17.8550   28.4470   28.9990 C.2    26  ALA26       0.2592
     27  O         16.9570   28.7240   28.2040 O.2    26  ALA26      -0.2718
     28  CB        19.8110   27.2400   28.0050 C.3    26  ALA26       0.0304
     29  N         18.2500   29.2690   29.9660 N.am   27  SER27      -0.1952
     30  CA        17.6430   30.5760   30.1750 C.3    27  SER27       0.1924
     31  C         17.9690   31.5250   29.0320 C.2    27  SER27       0.2314
     32  O         18.8830   31.2850   28.2400 O.2    27  SER27      -0.2863
     33  CB        18.1600   31.2000   31.4750 C.3    27  SER27       0.2116
     34  OG        18.1270   30.2770   32.5470 O.3    27  SER27      -0.2180
     35  N         32.7780   38.3080   19.6350 N.3    45  TYR45      -0.1227
     36  CA        31.8010   37.5690   18.8540 C.3    45  TYR45       0.1736
     37  C         30.4360   38.2300   18.9410 C.2    45  TYR45       0.2595
     38  O         30.0140   38.6630   20.0170 O.2    45  TYR45      -0.2718
     39  CB        31.7110   36.1300   19.3620 C.3    45  TYR45       0.0548
     40  CG        33.0000   35.3570   19.2320 C.ar   45  TYR45      -0.0200
     41  CD1       33.5670   35.1130   17.9750 C.ar   45  TYR45      -0.0009
     42  CD2       33.6420   34.8360   20.3630 C.ar   45  TYR45      -0.0009
     43  CE1       34.7440   34.3620   17.8450 C.ar   45  TYR45       0.0417
     44  CE2       34.8160   34.0830   20.2470 C.ar   45  TYR45       0.0417
     45  CZ        35.3610   33.8460   18.9850 C.ar   45  TYR45       0.1957
     46  OH        36.5020   33.0760   18.8650 O.3    45  TYR45      -0.2866
     47  N         29.7470   38.2950   17.8050 N.am   46  ARG46      -0.1966
     48  CA        28.4270   38.9090   17.7480 C.3    46  ARG46       0.1729
     49  C         27.3710   38.0610   18.4600 C.2    46  ARG46       0.2616
     50  O         26.3620   38.5830   18.9280 O.2    46  ARG46      -0.2715
     51  CB        28.0200   39.1300   16.2860 C.3    46  ARG46       0.0348
     52  CG        26.7090   39.8840   16.1170 C.3    46  ARG46       0.0492
     53  CD        26.2820   39.9580   14.6550 C.3    46  ARG46       0.2205
     54  NE        26.0220   38.6350   14.0900 N.pl3  46  ARG46      -0.0865
     55  CZ        25.5840   38.4190   12.8520 C.cat  46  ARG46       0.5346
     56  NH1       25.3520   39.4410   12.0400 N.pl3  46  ARG46       0.1354
     57  NH2       25.3780   37.1800   12.4260 N.pl3  46  ARG46       0.1354
     58  N         27.6070   36.7550   18.5490 N.am   47  ASP47      -0.1957
     59  CA        26.6540   35.8510   19.1930 C.3    47  ASP47       0.1840
     60  C         27.0310   35.4030   20.6140 C.2    47  ASP47       0.2621
     61  O         26.4510   34.4520   21.1440 O.2    47  ASP47      -0.2715
     62  CB        26.4190   34.6260   18.2990 C.3    47  ASP47       0.1450
     63  CG        27.7000   33.8680   17.9950 C.2    47  ASP47       0.3671
     64  OD1       28.7860   34.4760   18.0760 O.co2  47  ASP47      -0.2456
     65  OD2       27.6180   32.6690   17.6580 O.co2  47  ASP47      -0.2456
     66  N         27.9940   36.0910   21.2290 N.am   48  VAL48      -0.1977
     67  CA        28.4170   35.7730   22.5970 C.3    48  VAL48       0.1596
     68  C         28.4100   37.0570   23.4080 C.2    48  VAL48       0.2287
     69  O         29.3550   37.8470   23.3530 O.2    48  VAL48      -0.2864
     70  CB        29.8170   35.1820   22.6190 C.3    48  VAL48       0.0276
     71  CG1       30.2410   34.9010   24.0660 C.3    48  VAL48       0.0022
     72  CG2       29.8370   33.9080   21.7970 C.3    48  VAL48       0.0022
     73  N         44.8690   26.9100   15.4630 N.3   115  LYS115     -0.1245
     74  CA        44.4250   26.6800   14.0880 C.3   115  LYS115      0.1561
     75  C         44.8720   27.8070   13.1470 C.2   115  LYS115      0.2260
     76  O         44.1320   28.2000   12.2400 O.2   115  LYS115     -0.2867
     77  CB        42.8990   26.5670   14.0250 C.3   115  LYS115      0.0271
     78  CG        42.2940   25.4500   14.8530 C.3   115  LYS115      0.0035
     79  CD        40.7760   25.5150   14.7540 C.3   115  LYS115      0.0206
     80  CE        40.0930   24.6080   15.7630 C.3   115  LYS115      0.1093
     81  NZ        38.6090   24.7370   15.6790 N.3   115  LYS115     -0.1314
     82  N         43.2790   33.8570   18.6880 N.3   119  LYS119     -0.1245
     83  CA        42.0930   33.5260   19.4680 C.3   119  LYS119      0.1561
     84  C         42.0160   34.3470   20.7460 C.2   119  LYS119      0.2260
     85  O         41.0720   34.2030   21.5280 O.2   119  LYS119     -0.2867
     86  CB        42.1040   32.0350   19.8230 C.3   119  LYS119      0.0271
     87  CG        41.8470   31.1140   18.6370 C.3   119  LYS119      0.0035
     88  CD        40.4440   31.3460   18.0950 C.3   119  LYS119      0.0206
     89  CE        40.3220   30.9650   16.6250 C.3   119  LYS119      0.1093
     90  NZ        40.6410   29.5350   16.4050 N.3   119  LYS119     -0.1314
     91  N         45.1760   22.1920   25.5230 N.3   178  TRP178     -0.1241
     92  CA        43.8460   21.8680   25.0360 C.3   178  TRP178      0.1605
     93  C         44.0130   21.6780   23.5290 C.2   178  TRP178      0.2264
     94  O         44.5870   22.5210   22.8500 O.2   178  TRP178     -0.2867
     95  CB        42.8620   23.0010   25.3380 C.3   178  TRP178      0.0550
     96  CG        41.4410   22.6210   25.0660 C.ar  178  TRP178      0.0003
     97  CD1       40.8420   22.5090   23.8430 C.ar  178  TRP178      0.0946
     98  CD2       40.4530   22.2360   26.0350 C.ar  178  TRP178      0.0152
     99  NE1       39.5440   22.0670   23.9910 N.ar  178  TRP178     -0.2442
    100  CE2       39.2820   21.8870   25.3230 C.ar  178  TRP178      0.0810
    101  CE3       40.4500   22.1370   27.4340 C.ar  178  TRP178      0.0012
    102  CZ2       38.1120   21.4630   25.9660 C.ar  178  TRP178      0.0191
    103  CZ3       39.2860   21.7130   28.0750 C.ar  178  TRP178      0.0001
    104  CH2       38.1350   21.3750   27.3370 C.ar  178  TRP178      0.0015
    105  N         43.4260   21.3620   19.4120 N.3   180  ASP180     -0.1225
    106  CA        42.8520   22.2980   18.4470 C.3   180  ASP180      0.1805
    107  C         41.3980   21.9670   18.1600 C.2   180  ASP180      0.2598
    108  O         40.5620   22.8590   18.0580 O.2   180  ASP180     -0.2718
    109  CB        43.6420   22.2870   17.1350 C.3   180  ASP180      0.1424
    110  CG        44.9850   22.9740   17.2590 C.2   180  ASP180      0.3668
    111  OD1       45.8770   22.4150   17.9310 O.co2 180  ASP180     -0.2456
    112  OD2       45.1440   24.0780   16.6910 O.co2 180  ASP180     -0.2456
    113  N         41.1040   20.6800   18.0210 N.am  181  PHE181     -0.1962
    114  CA        39.7400   20.2360   17.7650 C.3   181  PHE181      0.1771
    115  C         39.3380   19.2540   18.8520 C.2   181  PHE181      0.2620
    116  O         40.1920   18.6150   19.4650 O.2   181  PHE181     -0.2715
    117  CB        39.6240   19.5430   16.3990 C.3   181  PHE181      0.0574
    118  CG        40.0150   20.4100   15.2320 C.ar  181  PHE181     -0.0200
    119  CD1       41.3480   20.5380   14.8560 C.ar  181  PHE181     -0.0042
    120  CD2       39.0470   21.1000   14.5080 C.ar  181  PHE181     -0.0042
    121  CE1       41.7110   21.3390   13.7770 C.ar  181  PHE181     -0.0003
    122  CE2       39.4000   21.9030   13.4270 C.ar  181  PHE181     -0.0003
    123  CZ        40.7340   22.0220   13.0610 C.ar  181  PHE181     -0.0000
    124  N         38.0350   19.1390   19.0900 N.am  182  GLY182     -0.1954
    125  CA        37.5490   18.2160   20.1000 C.3   182  GLY182      0.1869
    126  C         37.9070   18.5980   21.5270 C.2   182  GLY182      0.2309
    127  O         38.0650   19.7780   21.8430 O.2   182  GLY182     -0.2863
    128  N         38.5320   31.8300   27.6490 N.3   214  CYS214     -0.1221
    129  CA        39.0950   31.0300   26.5630 C.3   214  CYS214      0.1808
    130  C         38.9550   31.9910   25.3900 C.2   214  CYS214      0.2602
    131  O         39.4790   33.1040   25.4590 O.2   214  CYS214     -0.2717
    132  CB        38.3230   29.7200   26.3380 C.3   214  CYS214      0.0970
    133  SG        36.5270   29.7860   26.5140 S.3   214  CYS214     -0.0800
    134  N         38.2720   31.6110   24.3200 N.am  215  SER215     -0.1938
    135  CA        38.1150   32.5710   23.2430 C.3   215  SER215      0.2055
    136  C         36.7940   33.3010   23.4730 C.2   215  SER215      0.2642
    137  O         36.7760   34.5200   23.6780 O.2   215  SER215     -0.2714
    138  CB        38.1150   31.8910   21.8760 C.3   215  SER215      0.2130
    139  OG        38.2900   32.8660   20.8580 O.3   215  SER215     -0.2179
    140  N         35.6910   32.5550   23.4610 N.am  216  ALA216     -0.1977
    141  CA        34.3720   33.1470   23.6860 C.3   216  ALA216      0.1597
    142  C         34.0630   33.2180   25.1790 C.2   216  ALA216      0.2287
    143  O         33.1590   33.9490   25.6010 O.2   216  ALA216     -0.2864
    144  CB        33.2960   32.3330   22.9740 C.3   216  ALA216      0.0319
    145  N         32.9100   30.7110   27.1030 N.3   218  ILE218     -0.1231
    146  CA        31.6700   30.0040   27.4140 C.3   218  ILE218      0.1692
    147  C         31.7970   28.4920   27.2180 C.2   218  ILE218      0.2593
    148  O         31.1210   27.7140   27.9000 O.2   218  ILE218     -0.2718
    149  CB        30.4800   30.5280   26.5570 C.3   218  ILE218      0.0266
    150  CG1       30.7070   30.2060   25.0820 C.3   218  ILE218      0.0019
    151  CG2       30.3170   32.0320   26.7610 C.3   218  ILE218      0.0020
    152  CD1       29.6490   30.7750   24.1640 C.3   218  ILE218      0.0001
    153  N         32.6620   28.0810   26.2910 N.am  219  GLY219     -0.1942
    154  CA        32.8610   26.6620   26.0260 C.3   219  GLY219      0.2014
    155  C         33.8160   25.9920   26.9980 C.2   219  GLY219      0.2638
    156  O         33.3820   25.3240   27.9450 O.2   219  GLY219     -0.2714
    157  N         35.1190   26.1580   26.7700 N.am  220  ARG220     -0.1977
    158  CA        36.1200   25.5650   27.6550 C.3   220  ARG220      0.1597
    159  C         35.9920   26.1640   29.0540 C.2   220  ARG220      0.2287
    160  O         36.0710   25.4500   30.0500 O.2   220  ARG220     -0.2864
    161  CB        37.5320   25.8060   27.1100 C.3   220  ARG220      0.0334
    162  CG        37.7360   25.2770   25.6860 C.3   220  ARG220      0.0492
    163  CD        39.1580   25.5170   25.2030 C.3   220  ARG220      0.2205
    164  NE        39.2890   25.3480   23.7610 N.pl3 220  ARG220     -0.0865
    165  CZ        40.3830   25.6640   23.0720 C.cat 220  ARG220      0.5346
    166  NH1       41.4440   26.1640   23.7010 N.pl3 220  ARG220      0.1354
    167  NH2       40.4130   25.5000   21.7520 N.pl3 220  ARG220      0.1354
    168  N         23.9000   28.5990   33.4260 N.3   253  ARG253     -0.1245
    169  CA        23.4410   29.2830   32.2220 C.3   253  ARG253      0.1563
    170  C         22.4760   30.4350   32.4890 C.2   253  ARG253      0.2260
    171  O         22.0710   31.1170   31.5590 O.2   253  ARG253     -0.2867
    172  CB        22.7930   28.2990   31.2380 C.3   253  ARG253      0.0307
    173  CG        23.7850   27.3760   30.5370 C.3   253  ARG253      0.0489
    174  CD        23.3290   27.0940   29.1150 C.3   253  ARG253      0.2205
    175  NE        24.2870   26.2980   28.3600 N.pl3 253  ARG253     -0.0865
    176  CZ        24.2610   26.1740   27.0370 C.cat 253  ARG253      0.5346
    177  NH1       23.3250   26.7990   26.3400 N.pl3 253  ARG253      0.1354
    178  NH2       25.1610   25.4250   26.4110 N.pl3 253  ARG253      0.1354
    179  N         25.1810   32.8870   28.7500 N.3   257  MET257     -0.1230
    180  CA        24.7540   32.0100   27.6710 C.3   257  MET257      0.1702
    181  C         25.7980   31.0300   27.1490 C.2   257  MET257      0.2592
    182  O         27.0040   31.2250   27.2940 O.2   257  MET257     -0.2718
    183  CB        24.2700   32.8510   26.4870 C.3   257  MET257      0.0401
    184  CG        25.3680   33.7280   25.9000 C.3   257  MET257      0.0596
    185  SD        24.9950   34.3960   24.2630 S.3   257  MET257     -0.1393
    186  CE        23.9170   35.7810   24.6780 C.3   257  MET257      0.0692
    187  N         25.2950   29.9740   26.5260 N.am  258  GLY258     -0.1957
    188  CA        26.1360   28.9650   25.9110 C.3   258  GLY258      0.1869
    189  C         27.2880   28.3120   26.6500 C.2   258  GLY258      0.2309
    190  O         28.2550   27.9140   26.0090 O.2   258  GLY258     -0.2863
    191  N         29.7450   24.3530   24.8540 N.3   261  GLN261     -0.1231
    192  CA        29.3920   24.5220   23.4510 C.3   261  GLN261      0.1698
    193  C         29.1060   23.3050   22.5810 C.2   261  GLN261      0.2592
    194  O         28.5890   23.4610   21.4780 O.2   261  GLN261     -0.2718
    195  CB        30.4720   25.3610   22.7740 C.3   261  GLN261      0.0381
    196  CG        30.4260   26.8310   23.1210 C.3   261  GLN261      0.0905
    197  CD        29.2750   27.5400   22.4370 C.2   261  GLN261      0.2608
    198  OE1       29.2200   27.6110   21.2080 O.2   261  GLN261     -0.2717
    199  NE2       28.3470   28.0670   23.2280 N.am  261  GLN261     -0.0878
    200  N         29.4430   22.1070   23.0450 N.am  262  THR262     -0.1953
    201  CA        29.1940   20.9030   22.2490 C.3   262  THR262      0.1897
    202  C         28.8880   19.6940   23.1190 C.2   262  THR262      0.2313
    203  O         29.1450   19.7010   24.3230 O.2   262  THR262     -0.2863
    204  CB        30.4120   20.5280   21.3560 C.3   262  THR262      0.1794
    205  OG1       31.5470   20.2360   22.1820 O.3   262  THR262     -0.2208
    206  CG2       30.7520   21.6610   20.3990 C.3   262  THR262      0.0378
    207  N         31.9730   18.4720   24.7100 N.3   265  GLN265     -0.1245
    208  CA        32.3570   19.2180   25.9050 C.3   265  GLN265      0.1566
    209  C         31.5000   18.7780   27.0880 C.2   265  GLN265      0.2260
    210  O         31.9790   18.7250   28.2240 O.2   265  GLN265     -0.2867
    211  CB        32.2070   20.7280   25.6670 C.3   265  GLN265      0.0367
    212  CG        33.5150   21.4280   25.3100 C.3   265  GLN265      0.0905
    213  CD        33.3190   22.8670   24.8600 C.2   265  GLN265      0.2608
    214  OE1       32.5320   23.6110   25.4450 O.2   265  GLN265     -0.2717
    215  NE2       34.0530   23.2710   23.8220 N.am  265  GLN265     -0.0878
@<TRIPOS>BOND
     1    56    55    1
     2    76    75    2
     3    57    55    1
     4    55    54    2
     5   123   122   ar
     6   123   121   ar
     7    75    74    1
     8   122   120   ar
     9   121   119   ar
    10    77    74    1
    11    77    78    1
    12    74    73    1
    13    54    53    1
    14   120   118   ar
    15    53    52    1
    16    79    78    1
    17    79    80    1
    18   119   118   ar
    19   118   117    1
    20    81    80    1
    21    52    51    1
    22    51    48    1
    23   117   114    1
    24    90    89    1
    25    89    88    1
    26   112   110   ar
    27   109   110    1
    28   109   106    1
    29   110   111   ar
    30    65    63   ar
    31    48    47    1
    32    48    49    1
    33   114   113    1
    34   114   115    1
    35    47    37   am
    36    43    41   ar
    37    43    45   ar
    38    41    40   ar
    39    63    64   ar
    40    63    62    1
    41   113   107   am
    42   108   107    2
    43    88    87    1
    44   107   106    1
    45    62    59    1
    46   106   105    1
    47    49    58   am
    48    49    50    2
    49    58    59    1
    50    87    86    1
    51    82    83    1
    52   115   124   am
    53   115   116    2
    54    36    37    1
    55    36    39    1
    56    36    35    1
    57    46    45    1
    58    37    38    2
    59    45    44   ar
    60   124   125    1
    61    59    60    1
    62    40    39    1
    63    40    42   ar
    64    83    86    1
    65    83    84    1
    66    22    21    1
    67   125   126    1
    68    23    21    1
    69    44    42   ar
    70   206   204    1
    71    21    20    2
    72    60    61    2
    73    60    66   am
    74    84    85    2
    75   139   138    1
    76   198   197    2
    77    66    67    1
    78   204   205    1
    79   204   201    1
    80   194   193    2
    81   126   127    2
    82    20    19    1
    83   167   165    1
    84    72    70    1
    85   138   135    1
    86    19    18    1
    87   201   200    1
    88   201   202    1
    89   197   196    1
    90   197   199   am
    91    10     8   ar
    92    10    11   ar
    93   193   200   am
    94   193   192    1
    95    67    70    1
    96    67    68    1
    97    70    71    1
    98     8     6   ar
    99   195   196    1
   100   195   192    1
   101    94    93    2
   102   144   141    1
   103   165   166    1
   104   165   164    2
   105   202   203    2
   106   135   136    1
   107   135   134    1
   108    69    68    2
   109    12    11    1
   110   192   191    1
   111   140   136   am
   112   140   141    1
   113   136   137    2
   114    93    92    1
   115    11     9   ar
   116    18    17    1
   117   141   142    1
   118    17    14    1
   119   164   163    1
   120   215   213   am
   121    97    99   ar
   122    97    96   ar
   123     6     5    1
   124     6     7   ar
   125    99   100   ar
   126   152   150    1
   127     5     2    1
   128   185   186    1
   129   185   184    1
   130   134   130   am
   131     3     4    2
   132     3     2    1
   133   207   208    1
   134     9     7   ar
   135   213   212    1
   136   213   214    2
   137    92    95    1
   138    92    91    1
   139    15    14    1
   140    15    16    2
   141    96    95    1
   142    96    98   ar
   143   150   149    1
   144     2     1    1
   145    14    13    1
   146   142   143    2
   147   163   162    1
   148   212   211    1
   149   100   102   ar
   150   100    98   ar
   151   130   131    2
   152   130   129    1
   153   211   208    1
   154   162   161    1
   155   184   183    1
   156   208   209    1
   157   188   187    1
   158   188   189    1
   159   102   104   ar
   160   190   189    2
   161   154   153    1
   162   154   155    1
   163    98   101   ar
   164   153   147   am
   165   132   133    1
   166   132   129    1
   167   177   176    1
   168   178   176    1
   169   183   180    1
   170   187   181   am
   171   149   151    1
   172   149   146    1
   173   129   128    1
   174   157   155   am
   175   157   158    1
   176   155   156    2
   177   176   175    2
   178   209   210    2
   179   145   146    1
   180   161   158    1
   181   181   182    2
   182   181   180    1
   183   147   146    1
   184   147   148    2
   185   104   103   ar
   186   101   103   ar
   187   158   159    1
   188   180   179    1
   189    28    25    1
   190    27    26    2
   191    32    31    2
   192   175   174    1
   193    24    25    1
   194    25    26    1
   195    26    29   am
   196    31    30    1
   197   159   160    2
   198   174   173    1
   199    29    30    1
   200    30    33    1
   201   173   172    1
   202   172   169    1
   203    33    34    1
   204   171   170    2
   205   169   170    1
   206   169   168    1
