@<TRIPOS>MOLECULE
tmp/1phbA01.pdb
 137 127 0 0 0
SMALL
GASTEIGER

@<TRIPOS>ATOM
      1  N         38.1080   38.3480   16.4840 N.3    77  PRO77      -0.2102
      2  CA        39.3480   38.0550   15.7770 C.3    77  PRO77       0.1504
      3  C         40.5110   37.7160   16.6350 C.2    77  PRO77       0.2575
      4  O         41.5340   37.2260   16.1130 O.2    77  PRO77      -0.2718
      5  CB        39.5040   39.3490   14.9360 C.3    77  PRO77       0.0282
      6  CG        39.1510   40.3950   15.9660 C.3    77  PRO77       0.0208
      7  CD        37.9390   39.8080   16.6650 C.3    77  PRO77       0.0893
      8  N         40.4130   37.9640   17.9240 N.am   78  PHE78      -0.1977
      9  CA        41.5120   37.7450   18.8570 C.3    78  PHE78       0.1639
     10  C         41.1800   36.5980   19.7980 C.2    78  PHE78       0.2290
     11  O         40.0340   36.4790   20.2060 O.2    78  PHE78      -0.2864
     12  CB        41.8570   39.0670   19.5460 C.3    78  PHE78       0.0560
     13  CG        42.5610   40.0920   18.6890 C.ar   78  PHE78      -0.0200
     14  CD1       42.4860   40.1060   17.3230 C.ar   78  PHE78      -0.0042
     15  CD2       43.4020   41.0280   19.3230 C.ar   78  PHE78      -0.0042
     16  CE1       43.2960   40.8950   16.5040 C.ar   78  PHE78      -0.0003
     17  CE2       44.1380   41.9500   18.5660 C.ar   78  PHE78      -0.0003
     18  CZ        44.1290   41.8000   17.1740 C.ar   78  PHE78      -0.0000
     19  N         39.2660   38.9790   24.8390 N.3    83  ALA83      -0.1245
     20  CA        39.9850   39.9790   24.0590 C.3    83  ALA83       0.1562
     21  C         39.3100   40.1680   22.6940 C.2    83  ALA83       0.2260
     22  O         39.1990   41.2980   22.2030 O.2    83  ALA83      -0.2867
     23  CB        41.4360   39.5720   23.8410 C.3    83  ALA83       0.0290
     24  N         37.2730   43.6290   21.7340 N.3    87  TYR87      -0.1241
     25  CA        37.6870   44.4320   20.6080 C.3    87  TYR87       0.1605
     26  C         36.6310   44.5320   19.5470 C.2    87  TYR87       0.2264
     27  O         35.8860   43.5850   19.2120 O.2    87  TYR87      -0.2867
     28  CB        38.9740   45.1120   20.5160 C.3    87  TYR87       0.0534
     29  CG        40.1020   44.6560   21.4060 C.ar   87  TYR87      -0.0201
     30  CD1       40.0010   44.7320   22.7930 C.ar   87  TYR87      -0.0009
     31  CD2       41.2720   44.1350   20.8580 C.ar   87  TYR87      -0.0009
     32  CE1       40.9800   44.2000   23.6140 C.ar   87  TYR87       0.0417
     33  CE2       42.3170   43.6660   21.6670 C.ar   87  TYR87       0.0417
     34  CZ        42.1860   43.7770   23.0410 C.ar   87  TYR87       0.1957
     35  OH        43.2240   43.3190   23.8090 O.3    87  TYR87      -0.2866
     36  N         37.3170   47.1720   17.1130 N.3    89  PHE89      -0.1241
     37  CA        38.0520   48.0170   16.1630 C.3    89  PHE89       0.1605
     38  C         37.4470   47.9340   14.7640 C.2    89  PHE89       0.2264
     39  O         36.9070   46.9310   14.3670 O.2    89  PHE89      -0.2867
     40  CB        39.5530   47.7980   16.1530 C.3    89  PHE89       0.0534
     41  CG        40.3480   47.9970   17.3850 C.ar   89  PHE89      -0.0203
     42  CD1       40.0650   49.0290   18.2810 C.ar   89  PHE89      -0.0042
     43  CD2       41.5070   47.2640   17.6000 C.ar   89  PHE89      -0.0042
     44  CE1       40.8170   49.2430   19.4300 C.ar   89  PHE89      -0.0003
     45  CE2       42.2980   47.4450   18.7440 C.ar   89  PHE89      -0.0003
     46  CZ        41.9370   48.4460   19.6710 C.ar   89  PHE89      -0.0000
     47  N         38.3450   46.0090   11.2690 N.3    92  THR92      -0.1203
     48  CA        38.7700   44.6810   11.6010 C.3    92  THR92       0.1994
     49  C         37.7050   43.8190   12.2390 C.2    92  THR92       0.2618
     50  O         37.6630   42.6080   11.8740 O.2    92  THR92      -0.2717
     51  CB        40.1890   44.5820   12.2340 C.3    92  THR92       0.1784
     52  OG1       40.2080   45.4950   13.3650 O.3    92  THR92      -0.2211
     53  CG2       41.3910   44.9250   11.3200 C.3    92  THR92       0.0376
     54  N         36.8310   44.3740   13.0800 N.am   93  SER93      -0.1951
     55  CA        35.8110   43.5200   13.7100 C.3    93  SER93       0.1924
     56  C         34.5800   43.3720   12.8470 C.2    93  SER93       0.2314
     57  O         33.6160   42.7340   13.3160 O.2    93  SER93      -0.2863
     58  CB        35.4870   43.9750   15.1270 C.3    93  SER93       0.2116
     59  OG        34.9170   45.3020   15.0210 O.3    93  SER93      -0.2180
     60  N         48.6910   43.5140   22.2840 N.3   176  THR176     -0.1218
     61  CA        49.2440   42.4800   21.3520 C.3   176  THR176      0.1862
     62  C         50.0900   41.4510   22.0650 C.2   176  THR176      0.2287
     63  O         50.1980   40.2480   21.6980 O.2   176  THR176     -0.2866
     64  CB        50.0880   43.2360   20.2670 C.3   176  THR176      0.1770
     65  OG1       51.0300   44.0420   21.0500 O.3   176  THR176     -0.2211
     66  CG2       49.3300   44.0510   19.2560 C.3   176  THR176      0.0375
     67  N         42.3740   51.3850   16.0360 N.3   235  LEU235     -0.1245
     68  CA        43.1170   50.4690   15.1610 C.3   235  LEU235      0.1561
     69  C         44.3750   51.0930   14.5830 C.2   235  LEU235      0.2260
     70  O         45.4360   50.4550   14.4430 O.2   235  LEU235     -0.2867
     71  CB        42.1950   50.0700   13.9710 C.3   235  LEU235      0.0270
     72  CG        42.7980   49.0010   13.0500 C.3   235  LEU235      0.0019
     73  CD1       42.9250   47.6640   13.7830 C.3   235  LEU235      0.0001
     74  CD2       41.8640   48.7520   11.8860 C.3   235  LEU235      0.0001
     75  N         47.2900   51.3670   17.0310 N.3   238  VAL238     -0.1231
     76  CA        47.9650   50.0770   17.2390 C.3   238  VAL238      0.1692
     77  C         48.8180   49.7420   16.0340 C.2   238  VAL238      0.2592
     78  O         49.9200   49.1780   16.1910 O.2   238  VAL238     -0.2718
     79  CB        46.9890   48.9330   17.6390 C.3   238  VAL238      0.0266
     80  CG1       47.8170   47.6820   18.0380 C.3   238  VAL238      0.0020
     81  CG2       46.1360   49.2560   18.8490 C.3   238  VAL238      0.0020
     82  N         48.3010   49.9790   14.8270 N.am  239  GLY239     -0.1957
     83  CA        49.0440   49.6380   13.6070 C.3   239  GLY239      0.1869
     84  C         50.2990   50.4770   13.5570 C.2   239  GLY239      0.2309
     85  O         51.4380   49.9870   13.4400 O.2   239  GLY239     -0.2863
     86  N         53.4200   47.4350   14.9390 N.3   243  THR243     -0.1274
     87  CA        53.9180   46.6360   13.8380 C.3   243  THR243      0.1548
     88  C         55.2390   46.8410   13.2400 C.3   243  THR243      0.2036
     89  O         56.1570   45.9590   13.4220 O.3   243  THR243     -0.2187
     90  CB        52.7150   46.3440   12.8280 C.3   243  THR243      0.1721
     91  OG1       52.3980   47.6610   12.2230 O.3   243  THR243     -0.2215
     92  CG2       51.5000   45.9050   13.6950 C.3   243  THR243      0.0371
     93  N         52.6540   38.4080   12.6480 N.3   286  VAL286     -0.1245
     94  CA        51.2740   38.6140   13.0920 C.3   286  VAL286      0.1561
     95  C         50.5170   37.2420   13.1170 C.2   286  VAL286      0.2260
     96  O         50.6590   36.4460   12.2340 O.2   286  VAL286     -0.2867
     97  CB        50.6910   39.6000   12.0430 C.3   286  VAL286      0.0252
     98  CG1       49.2160   39.7110   12.1050 C.3   286  VAL286      0.0019
     99  CG2       51.1950   41.0670   12.4170 C.3   286  VAL286      0.0019
    100  N         46.4650   36.4610   14.0490 N.3   288  ASP288     -0.1239
    101  CA        45.1130   36.6080   14.6370 C.3   288  ASP288      0.1674
    102  C         44.2280   35.4630   14.0530 C.2   288  ASP288      0.2266
    103  O         44.7210   34.5300   13.4550 O.2   288  ASP288     -0.2867
    104  CB        44.4390   37.9340   14.6240 C.3   288  ASP288      0.1410
    105  CG        43.9010   38.4210   13.3380 C.2   288  ASP288      0.3668
    106  OD1       44.1450   37.8280   12.2830 O.co2 288  ASP288     -0.2456
    107  OD2       43.4070   39.5840   13.2870 O.co2 288  ASP288     -0.2456
    108  N         48.9480   34.4900   10.1300 N.3   313  GLN313     -0.1245
    109  CA        49.4910   35.0710    8.8900 C.3   313  GLN313      0.1566
    110  C         50.9860   34.7580    8.7340 C.2   313  GLN313      0.2260
    111  O         51.4660   34.5080    7.6220 O.2   313  GLN313     -0.2867
    112  CB        49.2800   36.6240    8.8900 C.3   313  GLN313      0.0367
    113  CG        47.8020   36.9440    8.8030 C.3   313  GLN313      0.0905
    114  CD        46.9860   37.0770   10.0050 C.2   313  GLN313      0.2608
    115  OE1       47.2650   36.7170   11.1630 O.2   313  GLN313     -0.2717
    116  NE2       45.7920   37.7100    9.8170 N.am  313  GLN313     -0.0878
    117  N         45.9770   44.4040    4.7280 N.3   348  CYS348     -0.1235
    118  CA        46.5850   45.5530    5.3930 C.3   348  CYS348      0.1677
    119  C         46.6050   46.8330    4.5350 C.2   348  CYS348      0.2270
    120  O         47.2840   46.8900    3.5060 O.2   348  CYS348     -0.2867
    121  CB        48.0490   45.2020    5.7190 C.3   348  CYS348      0.0956
    122  SG        48.6850   46.4780    6.9050 S.3   348  CYS348     -0.0801
    123  N         49.9440   38.3520   19.5870 N.3   386  ILE386     -0.1231
    124  CA        49.2010   38.7420   18.3500 C.3   386  ILE386      0.1692
    125  C         50.2110   39.3630   17.3930 C.2   386  ILE386      0.2588
    126  O         50.1390   39.1200   16.1980 O.2   386  ILE386     -0.2718
    127  CB        48.0010   39.6910   18.7200 C.3   386  ILE386      0.0266
    128  CG1       46.9980   38.8970   19.5720 C.3   386  ILE386      0.0019
    129  CG2       47.3240   40.3110   17.4580 C.3   386  ILE386      0.0020
    130  CD1       46.1590   39.7250   20.5920 C.3   386  ILE386      0.0001
    131  N         51.0980   40.1540   17.9660 N.am  387  VAL387     -0.2033
    132  CA        52.2200   40.7180   17.1180 C.3   387  VAL387      0.1282
    133  C         53.4610   40.2300   17.8610 C.3   387  VAL387      0.2035
    134  O         53.4200   40.3710   19.0760 O.3   387  VAL387     -0.2185
    135  CB        52.1150   42.2230   16.9650 C.3   387  VAL387      0.0226
    136  CG1       53.2860   42.8020   16.1210 C.3   387  VAL387      0.0018
    137  CG2       50.8080   42.6650   16.2670 C.3   387  VAL387      0.0018
@<TRIPOS>BOND
     1   120   119    2
     2   119   118    1
     3   117   118    1
     4   118   121    1
     5   121   122    1
     6   111   110    2
     7   110   109    1
     8   113   112    1
     9   113   114    1
    10   109   112    1
    11   109   108    1
    12   116   114   am
    13   114   115    2
    14    47    48    1
    15    53    51    1
    16    48    51    1
    17    48    49    1
    18    50    49    2
    19    74    72    1
    20    97    98    1
    21    97    99    1
    22    97    94    1
    23    91    90    1
    24    51    52    1
    25    96    95    2
    26    49    54   am
    27   106   105   ar
    28    93    94    1
    29    90    92    1
    30    90    87    1
    31    56    57    2
    32    56    55    1
    33    72    73    1
    34    72    71    1
    35    54    55    1
    36    94    95    1
    37    88    89    1
    38    88    87    1
    39   107   105   ar
    40   105   104    1
    41    85    84    2
    42   103   102    2
    43    84    83    1
    44    83    82    1
    45    55    58    1
    46    87    86    1
    47    71    68    1
    48   100   101    1
    49   102   101    1
    50    39    38    2
    51    70    69    2
    52    69    68    1
    53   104   101    1
    54    38    37    1
    55    82    77   am
    56     5     2    1
    57     5     6    1
    58    59    58    1
    59    68    67    1
    60     2     1    1
    61     2     3    1
    62     6     7    1
    63    77    78    2
    64    77    76    1
    65     4     3    2
    66   136   135    1
    67    40    37    1
    68    40    41    1
    69    37    36    1
    70   126   125    2
    71   137   135    1
    72     1     7    1
    73    16    18   ar
    74    16    14   ar
    75     3     8   am
    76   135   132    1
    77    75    76    1
    78   132   133    1
    79   132   131    1
    80    18    17   ar
    81    76    79    1
    82    14    13   ar
    83    41    43   ar
    84    41    42   ar
    85   125   131   am
    86   125   124    1
    87   129   127    1
    88    43    45   ar
    89    79    80    1
    90    79    81    1
    91   133   134    1
    92     8     9    1
    93    42    44   ar
    94   124   127    1
    95   124   123    1
    96    17    15   ar
    97    13    15   ar
    98    13    12    1
    99   127   128    1
   100    45    46   ar
   101     9    12    1
   102     9    10    1
   103    27    26    2
   104    66    64    1
   105    44    46   ar
   106    26    25    1
   107   128   130    1
   108    10    11    2
   109    64    65    1
   110    64    61    1
   111    28    25    1
   112    28    29    1
   113    25    24    1
   114    31    29   ar
   115    31    33   ar
   116    61    62    1
   117    61    60    1
   118    29    30   ar
   119    33    34   ar
   120    63    62    2
   121    22    21    2
   122    21    20    1
   123    30    32   ar
   124    34    32   ar
   125    34    35    1
   126    23    20    1
   127    20    19    1
