@<TRIPOS>MOLECULE
tmp/1phdA01.pdb
 110 101 0 0 0
SMALL
GASTEIGER

@<TRIPOS>ATOM
      1  N         40.3760   37.9580   17.9880 N.3    78  PHE78      -0.1241
      2  CA        41.5610   37.7660   18.8730 C.3    78  PHE78       0.1605
      3  C         41.2340   36.6140   19.8230 C.2    78  PHE78       0.2264
      4  O         40.0860   36.5560   20.2710 O.2    78  PHE78      -0.2867
      5  CB        41.8430   39.0550   19.6600 C.3    78  PHE78       0.0534
      6  CG        42.6280   40.1430   18.9960 C.ar   78  PHE78      -0.0203
      7  CD1       42.6430   40.3540   17.6080 C.ar   78  PHE78      -0.0042
      8  CD2       43.4640   40.9460   19.7990 C.ar   78  PHE78      -0.0042
      9  CE1       43.3430   41.3620   17.0150 C.ar   78  PHE78      -0.0003
     10  CE2       44.1610   42.0350   19.2730 C.ar   78  PHE78      -0.0003
     11  CZ        44.1060   42.2210   17.9070 C.ar   78  PHE78      -0.0000
     12  N         37.2370   43.5480   21.8500 N.3    87  TYR87      -0.1298
     13  CA        37.8980   44.3540   20.7090 C.3    87  TYR87       0.1290
     14  C         36.6990   44.7270   19.8300 C.3    87  TYR87       0.2013
     15  O         35.9400   43.7520   19.5170 O.3    87  TYR87      -0.2188
     16  CB        38.6760   43.2290   19.9440 C.3    87  TYR87       0.0480
     17  CG        39.3420   43.5940   18.6380 C.ar   87  TYR87      -0.0204
     18  CD1       38.6260   43.5970   17.4260 C.ar   87  TYR87      -0.0009
     19  CD2       40.7350   43.8120   18.6070 C.ar   87  TYR87      -0.0009
     20  CE1       39.3140   43.8940   16.2200 C.ar   87  TYR87       0.0417
     21  CE2       41.3920   43.9490   17.4000 C.ar   87  TYR87       0.0417
     22  CZ        40.6640   44.0320   16.2140 C.ar   87  TYR87       0.1957
     23  OH        41.4070   44.2900   15.0830 O.3    87  TYR87      -0.2866
     24  N         37.4990   47.0540   17.0070 N.3    89  PHE89      -0.1241
     25  CA        38.1790   47.9590   16.0260 C.3    89  PHE89       0.1605
     26  C         37.5070   47.8860   14.6670 C.2    89  PHE89       0.2264
     27  O         37.0080   46.8500   14.2690 O.2    89  PHE89      -0.2867
     28  CB        39.6420   47.8720   15.9960 C.3    89  PHE89       0.0534
     29  CG        40.4410   48.1080   17.2210 C.ar   89  PHE89      -0.0203
     30  CD1       40.0610   49.0910   18.1380 C.ar   89  PHE89      -0.0042
     31  CD2       41.5680   47.3920   17.4540 C.ar   89  PHE89      -0.0042
     32  CE1       40.8260   49.3290   19.3040 C.ar   89  PHE89      -0.0003
     33  CE2       42.3940   47.5960   18.5870 C.ar   89  PHE89      -0.0003
     34  CZ        42.0000   48.6310   19.4690 C.ar   89  PHE89      -0.0000
     35  N         38.4150   46.0750   11.1630 N.3    92  THR92      -0.1218
     36  CA        38.8710   44.7430   11.5460 C.3    92  THR92       0.1862
     37  C         37.8020   43.8630   12.1680 C.2    92  THR92       0.2287
     38  O         37.8670   42.6440   11.9060 O.2    92  THR92      -0.2866
     39  CB        40.2570   44.6750   12.2130 C.3    92  THR92       0.1770
     40  OG1       40.2880   45.5720   13.3390 O.3    92  THR92      -0.2211
     41  CG2       41.4750   45.0300   11.2680 C.3    92  THR92       0.0375
     42  N         48.6820   43.4910   22.2690 N.3   176  THR176     -0.1218
     43  CA        49.2230   42.4040   21.4150 C.3   176  THR176      0.1862
     44  C         50.0260   41.3840   22.1720 C.2   176  THR176      0.2287
     45  O         49.9470   40.1280   22.0310 O.2   176  THR176     -0.2866
     46  CB        50.0380   43.0630   20.2530 C.3   176  THR176      0.1770
     47  OG1       50.9570   43.9950   20.9500 O.3   176  THR176     -0.2211
     48  CG2       49.2170   43.7920   19.2310 C.3   176  THR176      0.0375
     49  N         42.4060   51.3970   15.8340 N.3   235  LEU235     -0.1245
     50  CA        43.1800   50.5250   14.9570 C.3   235  LEU235      0.1561
     51  C         44.4430   51.1530   14.4390 C.2   235  LEU235      0.2260
     52  O         45.4710   50.4740   14.2570 O.2   235  LEU235     -0.2867
     53  CB        42.2770   50.0140   13.7980 C.3   235  LEU235      0.0270
     54  CG        43.0250   49.0170   12.8590 C.3   235  LEU235      0.0019
     55  CD1       43.4680   47.7420   13.5460 C.3   235  LEU235      0.0001
     56  CD2       42.0420   48.6090   11.7710 C.3   235  LEU235      0.0001
     57  N         47.4500   51.3040   16.9490 N.3   238  VAL238     -0.1231
     58  CA        48.1320   49.9600   17.0150 C.3   238  VAL238      0.1692
     59  C         48.9480   49.7530   15.7650 C.2   238  VAL238      0.2592
     60  O         50.0810   49.2940   15.8210 O.2   238  VAL238     -0.2718
     61  CB        46.9980   48.9180   17.2240 C.3   238  VAL238      0.0266
     62  CG1       47.5050   47.4800   17.1250 C.3   238  VAL238      0.0020
     63  CG2       46.3510   49.0190   18.6120 C.3   238  VAL238      0.0020
     64  N         48.4710   49.9970   14.5910 N.am  239  GLY239     -0.1957
     65  CA        49.1780   49.8570   13.3280 C.3   239  GLY239      0.1869
     66  C         50.4200   50.7180   13.2930 C.2   239  GLY239      0.2309
     67  O         51.5330   50.3100   12.8980 O.2   239  GLY239     -0.2863
     68  N         53.5870   47.6920   14.7560 N.3   243  THR243     -0.1218
     69  CA        53.8810   46.8500   13.6150 C.3   243  THR243      0.1862
     70  C         55.2480   46.8930   12.9910 C.2   243  THR243      0.2287
     71  O         56.1420   46.0710   13.1960 O.2   243  THR243     -0.2866
     72  CB        52.7140   46.8940   12.5460 C.3   243  THR243      0.1770
     73  OG1       52.7060   48.3050   12.1520 O.3   243  THR243     -0.2211
     74  CG2       51.3440   46.4070   13.0270 C.3   243  THR243      0.0375
     75  N         52.5250   38.5740   12.5470 N.3   286  VAL286     -0.1245
     76  CA        51.1410   38.7490   12.9670 C.3   286  VAL286      0.1561
     77  C         50.4330   37.3770   13.1000 C.2   286  VAL286      0.2260
     78  O         50.4330   36.5690   12.1720 O.2   286  VAL286     -0.2867
     79  CB        50.4210   39.7910   12.0970 C.3   286  VAL286      0.0252
     80  CG1       48.9620   40.0250   12.4570 C.3   286  VAL286      0.0019
     81  CG2       51.0610   41.2100   12.1810 C.3   286  VAL286      0.0019
     82  N         46.4110   36.5340   13.9540 N.3   288  ASP288     -0.1239
     83  CA        45.0310   36.5970   14.4850 C.3   288  ASP288      0.1674
     84  C         44.1570   35.5190   13.9170 C.2   288  ASP288      0.2266
     85  O         44.5520   34.4190   13.4620 O.2   288  ASP288     -0.2867
     86  CB        44.4970   38.0200   14.6870 C.3   288  ASP288      0.1410
     87  CG        44.0980   38.6660   13.4120 C.2   288  ASP288      0.3668
     88  OD1       44.2010   38.0340   12.3670 O.co2 288  ASP288     -0.2456
     89  OD2       43.6970   39.8630   13.4400 O.co2 288  ASP288     -0.2456
     90  N         45.7940   44.5500    4.6460 N.3   348  CYS348     -0.1235
     91  CA        46.4880   45.6290    5.1760 C.3   348  CYS348      0.1677
     92  C         46.6780   46.8550    4.2550 C.2   348  CYS348      0.2270
     93  O         47.4410   46.8630    3.3080 O.2   348  CYS348     -0.2867
     94  CB        47.8980   45.2730    5.6700 C.3   348  CYS348      0.0956
     95  SG        48.6460   46.6430    6.5910 S.3   348  CYS348     -0.0801
     96  N         49.8610   38.3940   19.5370 N.3   386  ILE386     -0.1231
     97  CA        49.1640   38.7480   18.3280 C.3   386  ILE386      0.1692
     98  C         50.1870   39.3470   17.3380 C.2   386  ILE386      0.2591
     99  O         49.9880   39.1810   16.1220 O.2   386  ILE386     -0.2718
    100  CB        47.9620   39.7170   18.4560 C.3   386  ILE386      0.0266
    101  CG1       47.0320   39.4250   19.6160 C.3   386  ILE386      0.0019
    102  CG2       47.2220   39.7770   17.0570 C.3   386  ILE386      0.0020
    103  CD1       45.9450   38.3640   19.4510 C.3   386  ILE386      0.0001
    104  N         51.0640   40.1640   17.9440 N.am  387  VAL387     -0.1980
    105  CA        52.1870   40.7110   17.1160 C.3   387  VAL387      0.1595
    106  C         53.4280   40.3490   17.8790 C.2   387  VAL387      0.2287
    107  O         53.4080   40.4200   19.1240 O.2   387  VAL387     -0.2864
    108  CB        51.9680   42.1880   16.7620 C.3   387  VAL387      0.0276
    109  CG1       53.0070   42.7260   15.7630 C.3   387  VAL387      0.0022
    110  CG2       50.5790   42.5320   16.2120 C.3   387  VAL387      0.0022
@<TRIPOS>BOND
     1    93    92    2
     2    92    91    1
     3    90    91    1
     4    91    94    1
     5    94    95    1
     6    35    36    1
     7    41    39    1
     8    36    37    1
     9    36    39    1
    10    56    54    1
    11    38    37    2
    12    79    81    1
    13    79    80    1
    14    79    76    1
    15    73    72    1
    16    78    77    2
    17    39    40    1
    18    88    87   ar
    19    72    74    1
    20    72    69    1
    21    75    76    1
    22    54    55    1
    23    54    53    1
    24    67    66    2
    25    76    77    1
    26    70    71    2
    27    70    69    1
    28    66    65    1
    29    65    64    1
    30    87    89   ar
    31    87    86    1
    32    85    84    2
    33    69    68    1
    34    53    50    1
    35    84    83    1
    36    82    83    1
    37    52    51    2
    38    27    26    2
    39    51    50    1
    40    83    86    1
    41    64    59   am
    42    26    25    1
    43    50    49    1
    44    23    22    1
    45   109   108    1
    46    59    60    2
    47    59    58    1
    48    28    25    1
    49    28    29    1
    50    25    24    1
    51    99    98    2
    52   110   108    1
    53    22    20   ar
    54    22    21   ar
    55    20    18   ar
    56   108   105    1
    57    57    58    1
    58    58    61    1
    59     9     7   ar
    60     9    11   ar
    61   102   100    1
    62   105   106    1
    63   105   104    1
    64    62    61    1
    65    29    31   ar
    66    29    30   ar
    67    61    63    1
    68    98   104   am
    69    98    97    1
    70    21    19   ar
    71    18    17   ar
    72    31    33   ar
    73     7     6   ar
    74   106   107    2
    75    11    10   ar
    76     1     2    1
    77    30    32   ar
    78    97   100    1
    79    97    96    1
    80   100   101    1
    81    33    34   ar
    82    19    17   ar
    83    17    16    1
    84     2     5    1
    85     2     3    1
    86     6     5    1
    87     6     8   ar
    88    48    46    1
    89    10     8   ar
    90    32    34   ar
    91   103   101    1
    92    15    14    1
    93     3     4    2
    94    14    13    1
    95    16    13    1
    96    46    47    1
    97    46    43    1
    98    13    12    1
    99    43    44    1
   100    43    42    1
   101    45    44    2
