@<TRIPOS>MOLECULE
tmp/1pheA01.pdb
 138 129 0 0 0
SMALL
GASTEIGER

@<TRIPOS>ATOM
      1  N         40.5490   37.9330   18.2050 N.3    78  PHE78      -0.1241
      2  CA        41.6160   37.7680   19.1650 C.3    78  PHE78       0.1605
      3  C         41.1870   36.5990   20.0750 C.2    78  PHE78       0.2264
      4  O         40.0530   36.4190   20.4140 O.2    78  PHE78      -0.2867
      5  CB        41.8380   39.0750   19.9110 C.3    78  PHE78       0.0534
      6  CG        42.7980   40.0760   19.3200 C.ar   78  PHE78      -0.0203
      7  CD1       42.9390   40.2730   17.9350 C.ar   78  PHE78      -0.0042
      8  CD2       43.5680   40.8490   20.1620 C.ar   78  PHE78      -0.0042
      9  CE1       43.8960   41.1180   17.4350 C.ar   78  PHE78      -0.0003
     10  CE2       44.4790   41.7690   19.7260 C.ar   78  PHE78      -0.0003
     11  CZ        44.6150   41.9190   18.3430 C.ar   78  PHE78      -0.0000
     12  N         37.1210   43.0880   21.8140 N.3    87  TYR87      -0.1241
     13  CA        37.6310   43.6820   20.5790 C.3    87  TYR87       0.1605
     14  C         36.4900   44.3050   19.8000 C.2    87  TYR87       0.2264
     15  O         35.6140   43.5620   19.3530 O.2    87  TYR87      -0.2867
     16  CB        38.4290   42.6720   19.7690 C.3    87  TYR87       0.0534
     17  CG        39.3220   43.1670   18.6910 C.ar   87  TYR87      -0.0201
     18  CD1       38.7920   43.4850   17.4400 C.ar   87  TYR87      -0.0009
     19  CD2       40.7000   43.3520   18.8830 C.ar   87  TYR87      -0.0009
     20  CE1       39.6240   43.9960   16.4300 C.ar   87  TYR87       0.0417
     21  CE2       41.4990   43.8430   17.8670 C.ar   87  TYR87       0.0417
     22  CZ        40.9650   44.1170   16.6350 C.ar   87  TYR87       0.1957
     23  OH        41.7940   44.6290   15.6740 O.3    87  TYR87      -0.2866
     24  N         37.5050   47.2420   17.4820 N.3    89  PHE89      -0.1241
     25  CA        38.2240   48.0490   16.5020 C.3    89  PHE89       0.1605
     26  C         37.6030   48.0440   15.1240 C.2    89  PHE89       0.2264
     27  O         36.9760   47.0550   14.7730 O.2    89  PHE89      -0.2867
     28  CB        39.6970   47.7730   16.5460 C.3    89  PHE89       0.0534
     29  CG        40.4400   48.1170   17.7750 C.ar   89  PHE89      -0.0203
     30  CD1       40.2170   49.3430   18.4300 C.ar   89  PHE89      -0.0042
     31  CD2       41.4240   47.3220   18.2880 C.ar   89  PHE89      -0.0042
     32  CE1       40.9530   49.7470   19.5420 C.ar   89  PHE89      -0.0003
     33  CE2       42.1240   47.6450   19.4600 C.ar   89  PHE89      -0.0003
     34  CZ        41.8980   48.8830   20.0720 C.ar   89  PHE89      -0.0000
     35  N         38.5250   46.0150   11.5320 N.3    92  THR92      -0.1218
     36  CA        38.9550   44.7360   11.9570 C.3    92  THR92       0.1862
     37  C         37.9500   43.8410   12.6430 C.2    92  THR92       0.2287
     38  O         38.1020   42.5870   12.5200 O.2    92  THR92      -0.2866
     39  CB        40.4120   44.5900   12.5260 C.3    92  THR92       0.1770
     40  OG1       40.5280   45.3730   13.7400 O.3    92  THR92      -0.2211
     41  CG2       41.5150   44.9760   11.5150 C.3    92  THR92       0.0375
     42  N         49.4320   49.5340   23.8130 N.3   172  THR172     -0.1218
     43  CA        49.4970   48.6910   22.5980 C.3   172  THR172      0.1862
     44  C         50.0630   47.3110   22.9600 C.2   172  THR172      0.2287
     45  O         49.4100   46.2950   22.7230 O.2   172  THR172     -0.2866
     46  CB        50.3130   49.3160   21.4270 C.3   172  THR172      0.1770
     47  OG1       49.7270   50.6330   21.1200 O.3   172  THR172     -0.2211
     48  CG2       50.3470   48.4320   20.1840 C.3   172  THR172      0.0375
     49  N         47.8480   44.7130   24.4930 N.3   175  MET175     -0.1230
     50  CA        46.7930   44.2020   23.6140 C.3   175  MET175      0.1702
     51  C         47.2360   42.9690   22.8450 C.2   175  MET175      0.2593
     52  O         46.4900   41.9860   22.7180 O.2   175  MET175     -0.2718
     53  CB        46.1910   45.3070   22.7670 C.3   175  MET175      0.0401
     54  CG        45.3820   46.3040   23.5960 C.3   175  MET175      0.0596
     55  SD        44.7600   47.5070   22.3090 S.3   175  MET175     -0.1393
     56  CE        44.0570   48.7250   23.4280 C.3   175  MET175      0.0692
     57  N         48.4040   43.0000   22.3210 N.am  176  THR176     -0.1953
     58  CA        49.1720   42.1120   21.5160 C.3   176  THR176      0.1897
     59  C         50.0460   41.0740   22.2240 C.2   176  THR176      0.2313
     60  O         50.1330   39.8800   21.8450 O.2   176  THR176     -0.2863
     61  CB        49.9580   43.1040   20.5740 C.3   176  THR176      0.1794
     62  OG1       49.2570   43.0990   19.3280 O.3   176  THR176     -0.2208
     63  CG2       51.4060   43.0310   20.5910 C.3   176  THR176      0.0378
     64  N         42.5300   42.9020   28.4060 N.3   184  PHE184     -0.1241
     65  CA        42.3480   43.4900   27.0950 C.3   184  PHE184      0.1605
     66  C         41.3380   44.6260   27.1750 C.2   184  PHE184      0.2264
     67  O         41.6650   45.6830   26.6140 O.2   184  PHE184     -0.2867
     68  CB        42.0200   42.5100   25.9590 C.3   184  PHE184      0.0534
     69  CG        41.8810   43.1510   24.6000 C.ar  184  PHE184     -0.0203
     70  CD1       40.6780   43.6420   24.1480 C.ar  184  PHE184     -0.0042
     71  CD2       43.0170   43.2320   23.7690 C.ar  184  PHE184     -0.0042
     72  CE1       40.5810   44.2930   22.8720 C.ar  184  PHE184     -0.0003
     73  CE2       42.9590   43.8140   22.5310 C.ar  184  PHE184     -0.0003
     74  CZ        41.7150   44.3290   22.0870 C.ar  184  PHE184     -0.0000
     75  N         42.2990   51.6150   16.1540 N.3   235  LEU235     -0.1245
     76  CA        43.0070   50.6730   15.3140 C.3   235  LEU235      0.1561
     77  C         44.2390   51.2660   14.6290 C.2   235  LEU235      0.2260
     78  O         45.2390   50.5750   14.5550 O.2   235  LEU235     -0.2867
     79  CB        42.0690   50.0510   14.2820 C.3   235  LEU235      0.0270
     80  CG        42.7790   48.9640   13.4300 C.3   235  LEU235      0.0019
     81  CD1       43.1760   47.7810   14.2380 C.3   235  LEU235      0.0001
     82  CD2       41.9380   48.6370   12.2420 C.3   235  LEU235      0.0001
     83  N         47.4040   51.4760   17.3020 N.3   238  VAL238     -0.1231
     84  CA        47.9590   50.1490   17.6680 C.3   238  VAL238      0.1692
     85  C         48.4870   49.4400   16.4270 C.2   238  VAL238      0.2592
     86  O         49.4900   48.7360   16.4350 O.2   238  VAL238     -0.2718
     87  CB        46.7910   49.3190   18.2940 C.3   238  VAL238      0.0266
     88  CG1       46.4350   49.8090   19.6630 C.3   238  VAL238      0.0020
     89  CG2       45.5620   49.3340   17.3920 C.3   238  VAL238      0.0020
     90  N         47.7350   49.6870   15.3640 N.am  239  GLY239     -0.1957
     91  CA        47.9410   49.1330   14.0350 C.3   239  GLY239      0.1869
     92  C         49.3790   49.2050   13.6870 C.2   239  GLY239      0.2309
     93  O         49.9520   48.1060   13.5080 O.2   239  GLY239     -0.2863
     94  N         53.0770   49.1840   16.6880 N.3   242  ASP242     -0.1225
     95  CA        53.5350   47.8560   17.0640 C.3   242  ASP242      0.1805
     96  C         54.1050   46.9240   16.0380 C.2   242  ASP242      0.2598
     97  O         55.0770   46.1520   16.2730 O.2   242  ASP242     -0.2718
     98  CB        52.3620   47.1880   17.7920 C.3   242  ASP242      0.1424
     99  CG        52.7380   46.0080   18.6410 C.2   242  ASP242      0.3668
    100  OD1       53.8520   45.9520   19.1960 O.co2 242  ASP242     -0.2456
    101  OD2       51.8780   45.1310   18.7600 O.co2 242  ASP242     -0.2456
    102  N         53.4570   46.9100   14.9010 N.am  243  THR243     -0.1953
    103  CA        53.9210   46.0260   13.8190 C.3   243  THR243      0.1897
    104  C         55.2170   46.4410   13.1890 C.2   243  THR243      0.2313
    105  O         56.1520   45.6350   13.2080 O.2   243  THR243     -0.2863
    106  CB        52.6720   45.7790   12.8800 C.3   243  THR243      0.1794
    107  OG1       52.2660   47.1220   12.5790 O.3   243  THR243     -0.2208
    108  CG2       51.5700   44.9740   13.5790 C.3   243  THR243      0.0378
    109  N         52.6270   38.4040   12.6780 N.3   286  VAL286     -0.1245
    110  CA        51.2700   38.5530   13.2310 C.3   286  VAL286      0.1561
    111  C         50.5530   37.2060   13.3020 C.2   286  VAL286      0.2260
    112  O         50.5770   36.4370   12.3590 O.2   286  VAL286     -0.2867
    113  CB        50.5290   39.5580   12.3060 C.3   286  VAL286      0.0252
    114  CG1       49.0300   39.7050   12.5740 C.3   286  VAL286      0.0019
    115  CG2       51.1940   40.9340   12.3880 C.3   286  VAL286      0.0019
    116  N         46.5070   36.3670   14.1630 N.3   288  ASP288     -0.1239
    117  CA        45.1350   36.5480   14.7860 C.3   288  ASP288      0.1674
    118  C         44.2310   35.4400   14.2460 C.2   288  ASP288      0.2266
    119  O         44.6970   34.5040   13.6220 O.2   288  ASP288     -0.2867
    120  CB        44.5760   37.9370   14.7800 C.3   288  ASP288      0.1410
    121  CG        44.1010   38.4880   13.4760 C.2   288  ASP288      0.3668
    122  OD1       44.4090   37.9910   12.3840 O.co2 288  ASP288     -0.2456
    123  OD2       43.3560   39.4860   13.5200 O.co2 288  ASP288     -0.2456
    124  N         49.9140   38.0690   19.5820 N.3   386  ILE386     -0.1231
    125  CA        49.2470   38.5040   18.3760 C.3   386  ILE386      0.1692
    126  C         50.2980   39.1270   17.4400 C.2   386  ILE386      0.2591
    127  O         50.1280   38.9150   16.2320 O.2   386  ILE386     -0.2718
    128  CB        48.1050   39.6080   18.5540 C.3   386  ILE386      0.0266
    129  CG1       47.1230   39.1850   19.6290 C.3   386  ILE386      0.0019
    130  CG2       47.4050   39.9400   17.1850 C.3   386  ILE386      0.0020
    131  CD1       46.1410   38.0650   19.2110 C.3   386  ILE386      0.0001
    132  N         51.1260   39.9630   17.9990 N.am  387  VAL387     -0.1980
    133  CA        52.2600   40.5770   17.2580 C.3   387  VAL387      0.1595
    134  C         53.4870   40.1000   18.0210 C.2   387  VAL387      0.2287
    135  O         53.5630   40.2350   19.2700 O.2   387  VAL387     -0.2864
    136  CB        52.1000   42.0370   16.9080 C.3   387  VAL387      0.0276
    137  CG1       53.2750   42.6270   16.0810 C.3   387  VAL387      0.0022
    138  CG2       50.7910   42.3430   16.1470 C.3   387  VAL387      0.0022
@<TRIPOS>BOND
     1    41    39    1
     2    35    36    1
     3    36    39    1
     4    36    37    1
     5    82    80    1
     6   113   115    1
     7   113   114    1
     8   113   110    1
     9   112   111    2
    10   122   121   ar
    11    38    37    2
    12    39    40    1
    13   107   106    1
    14   109   110    1
    15   106   108    1
    16   106   103    1
    17   104   105    2
    18   104   103    1
    19   110   111    1
    20    80    81    1
    21    80    79    1
    22   121   123   ar
    23   121   120    1
    24    93    92    2
    25   119   118    2
    26    92    91    1
    27   103   102    1
    28    91    90    1
    29   116   117    1
    30   118   117    1
    31    79    76    1
    32    78    77    2
    33    77    76    1
    34    27    26    2
    35   120   117    1
    36   102    96   am
    37    26    25    1
    38    76    75    1
    39    90    85   am
    40    23    22    1
    41    96    97    2
    42    96    95    1
    43   137   136    1
    44   138   136    1
    45   127   126    2
    46    85    86    2
    47    85    84    1
    48    20    22   ar
    49    20    18   ar
    50    25    28    1
    51    25    24    1
    52    28    29    1
    53    22    21   ar
    54    94    95    1
    55   136   133    1
    56    95    98    1
    57   130   128    1
    58   133   132    1
    59   133   134    1
    60    83    84    1
    61    89    87    1
    62     9     7   ar
    63     9    11   ar
    64   126   132   am
    65   126   125    1
    66    18    17   ar
    67    84    87    1
    68    29    31   ar
    69    29    30   ar
    70    98    99    1
    71    21    19   ar
    72     7     6   ar
    73   134   135    2
    74     1     2    1
    75    31    33   ar
    76    87    88    1
    77    11    10   ar
    78   125   128    1
    79   125   124    1
    80    30    32   ar
    81   128   129    1
    82    99   101   ar
    83    99   100   ar
    84    17    19   ar
    85    17    16    1
    86     2     5    1
    87     2     3    1
    88   131   129    1
    89     6     5    1
    90     6     8   ar
    91    62    61    1
    92    15    14    2
    93    33    34   ar
    94    32    34   ar
    95    10     8   ar
    96    16    13    1
    97    14    13    1
    98     3     4    2
    99    48    46    1
   100    61    63    1
   101    61    58    1
   102    13    12    1
   103    47    46    1
   104    46    43    1
   105    58    59    1
   106    58    57    1
   107    60    59    2
   108    74    73   ar
   109    74    72   ar
   110    55    56    1
   111    55    54    1
   112    57    51   am
   113    73    71   ar
   114    43    44    1
   115    43    42    1
   116    52    51    2
   117    45    44    2
   118    53    54    1
   119    53    50    1
   120    51    50    1
   121    72    70   ar
   122    50    49    1
   123    71    69   ar
   124    70    69   ar
   125    69    68    1
   126    68    65    1
   127    67    66    2
   128    65    66    1
   129    65    64    1
