@<TRIPOS>MOLECULE
tmp/1phfA01.pdb
 118 109 0 0 0
SMALL
GASTEIGER

@<TRIPOS>ATOM
      1  N         40.2850   37.9530   17.8930 N.3    78  PHE78      -0.1241
      2  CA        41.3690   37.7740   18.8690 C.3    78  PHE78       0.1605
      3  C         41.0300   36.6580   19.8340 C.2    78  PHE78       0.2264
      4  O         39.8590   36.4670   20.2100 O.2    78  PHE78      -0.2867
      5  CB        41.6560   39.1250   19.5820 C.3    78  PHE78       0.0534
      6  CG        42.4520   40.0860   18.7540 C.ar   78  PHE78      -0.0203
      7  CD1       42.2210   40.2650   17.3940 C.ar   78  PHE78      -0.0042
      8  CD2       43.3970   40.9310   19.3740 C.ar   78  PHE78      -0.0042
      9  CE1       42.9820   41.0540   16.5760 C.ar   78  PHE78      -0.0003
     10  CE2       44.1500   41.8320   18.5950 C.ar   78  PHE78      -0.0003
     11  CZ        43.9630   41.7900   17.2010 C.ar   78  PHE78      -0.0000
     12  N         37.0860   43.7680   21.6030 N.3    87  TYR87      -0.1241
     13  CA        37.6890   44.5600   20.4840 C.3    87  TYR87       0.1605
     14  C         36.5750   44.8900   19.5030 C.2    87  TYR87       0.2264
     15  O         35.8090   43.9790   19.0930 O.2    87  TYR87      -0.2867
     16  CB        38.7680   43.6860   19.9150 C.3    87  TYR87       0.0534
     17  CG        39.4100   43.8860   18.5960 C.ar   87  TYR87      -0.0201
     18  CD1       38.6880   43.9880   17.3950 C.ar   87  TYR87      -0.0009
     19  CD2       40.8150   43.6710   18.4960 C.ar   87  TYR87      -0.0009
     20  CE1       39.3240   44.0920   16.1630 C.ar   87  TYR87       0.0417
     21  CE2       41.4390   43.7910   17.2690 C.ar   87  TYR87       0.0417
     22  CZ        40.7140   43.9720   16.1130 C.ar   87  TYR87       0.1957
     23  OH        41.4100   44.0800   14.9380 O.3    87  TYR87      -0.2866
     24  N         37.3350   47.2950   16.9120 N.3    89  PHE89      -0.1241
     25  CA        38.0830   48.0750   15.9140 C.3    89  PHE89       0.1605
     26  C         37.4370   47.9000   14.5420 C.2    89  PHE89       0.2264
     27  O         36.9390   46.8240   14.2260 O.2    89  PHE89      -0.2867
     28  CB        39.5710   47.8220   15.9050 C.3    89  PHE89       0.0534
     29  CG        40.3610   48.0160   17.1540 C.ar   89  PHE89      -0.0203
     30  CD1       40.0210   48.9790   18.0950 C.ar   89  PHE89      -0.0042
     31  CD2       41.5620   47.3570   17.3160 C.ar   89  PHE89      -0.0042
     32  CE1       40.7870   49.2040   19.2370 C.ar   89  PHE89      -0.0003
     33  CE2       42.3540   47.5250   18.4610 C.ar   89  PHE89      -0.0003
     34  CZ        41.9480   48.4750   19.4360 C.ar   89  PHE89      -0.0000
     35  N         38.4430   46.1390   11.0000 N.3    92  THR92      -0.1274
     36  CA        38.8640   44.7960   11.3720 C.3    92  THR92       0.1548
     37  C         37.7860   43.9400   12.0070 C.3    92  THR92       0.2036
     38  O         37.8840   42.7100   11.7650 O.3    92  THR92      -0.2187
     39  CB        40.2620   44.6020   12.0350 C.3    92  THR92       0.1721
     40  OG1       40.2960   45.4100   13.2450 O.3    92  THR92      -0.2215
     41  CG2       41.4980   44.8120   11.1430 C.3    92  THR92       0.0371
     42  N         47.7890   45.2870   24.3820 N.3   175  MET175     -0.1230
     43  CA        46.8450   44.6420   23.4700 C.3   175  MET175      0.1702
     44  C         47.4080   43.4930   22.6670 C.2   175  MET175      0.2593
     45  O         46.6710   42.4880   22.4190 O.2   175  MET175     -0.2718
     46  CB        46.1820   45.7180   22.5550 C.3   175  MET175      0.0401
     47  CG        45.3900   46.6620   23.4520 C.3   175  MET175      0.0596
     48  SD        44.6420   48.0110   22.4280 S.3   175  MET175     -0.1393
     49  CE        44.1330   49.0960   23.7680 C.3   175  MET175      0.0692
     50  N         48.6320   43.6060   22.1730 N.am  176  THR176     -0.1953
     51  CA        49.2530   42.5880   21.3200 C.3   176  THR176      0.1897
     52  C         50.0830   41.5870   22.0970 C.2   176  THR176      0.2313
     53  O         50.1100   40.3440   21.8460 O.2   176  THR176     -0.2863
     54  CB        50.1090   43.3400   20.2390 C.3   176  THR176      0.1794
     55  OG1       51.0190   44.1720   21.0420 O.3   176  THR176     -0.2208
     56  CG2       49.3140   44.1680   19.2490 C.3   176  THR176      0.0378
     57  N         42.4610   51.3800   15.7650 N.3   235  LEU235     -0.1245
     58  CA        43.2180   50.4610   14.9310 C.3   235  LEU235      0.1561
     59  C         44.4870   51.0690   14.3540 C.2   235  LEU235      0.2260
     60  O         45.4790   50.3690   14.0700 O.2   235  LEU235     -0.2867
     61  CB        42.3310   49.9380   13.7980 C.3   235  LEU235      0.0270
     62  CG        43.0490   48.8930   12.9130 C.3   235  LEU235      0.0019
     63  CD1       43.3990   47.6670   13.7520 C.3   235  LEU235      0.0001
     64  CD2       42.0580   48.5010   11.8100 C.3   235  LEU235      0.0001
     65  N         47.5030   51.2880   17.0170 N.3   238  VAL238     -0.1231
     66  CA        48.1460   49.9900   17.1980 C.3   238  VAL238      0.1692
     67  C         48.9480   49.6670   15.9500 C.2   238  VAL238      0.2592
     68  O         50.1400   49.3520   16.0360 O.2   238  VAL238     -0.2718
     69  CB        47.0710   48.8990   17.5160 C.3   238  VAL238      0.0266
     70  CG1       47.7250   47.6560   18.1590 C.3   238  VAL238      0.0020
     71  CG2       45.9860   49.3350   18.4860 C.3   238  VAL238      0.0020
     72  N         48.3760   49.8080   14.7810 N.am  239  GLY239     -0.1957
     73  CA        49.1040   49.5200   13.5300 C.3   239  GLY239      0.1869
     74  C         50.3070   50.4400   13.4720 C.2   239  GLY239      0.2309
     75  O         51.4750   50.0230   13.3030 O.2   239  GLY239     -0.2863
     76  N         53.6690   47.7250   14.8290 N.3   243  THR243     -0.1218
     77  CA        54.0650   46.8000   13.8060 C.3   243  THR243      0.1862
     78  C         55.3870   46.8760   13.1240 C.2   243  THR243      0.2287
     79  O         56.2210   45.9390   13.1320 O.2   243  THR243     -0.2866
     80  CB        52.8590   46.4670   12.8360 C.3   243  THR243      0.1770
     81  OG1       52.4460   47.7620   12.2260 O.3   243  THR243     -0.2211
     82  CG2       51.7500   45.8890   13.7010 C.3   243  THR243      0.0375
     83  N         52.3900   38.6900   12.5940 N.3   286  VAL286     -0.1245
     84  CA        51.0140   38.8620   13.0280 C.3   286  VAL286      0.1561
     85  C         50.3010   37.4750   13.0820 C.2   286  VAL286      0.2260
     86  O         50.3730   36.6820   12.1640 O.2   286  VAL286     -0.2867
     87  CB        50.3380   39.8840   12.0870 C.3   286  VAL286      0.0252
     88  CG1       48.8530   40.0820   12.3600 C.3   286  VAL286      0.0019
     89  CG2       50.9400   41.2900   12.3060 C.3   286  VAL286      0.0019
     90  N         46.4850   36.5420   14.0010 N.3   288  ASP288     -0.1239
     91  CA        45.0700   36.7140   14.6130 C.3   288  ASP288      0.1674
     92  C         44.1870   35.6280   14.0580 C.2   288  ASP288      0.2266
     93  O         44.6850   34.6160   13.5620 O.2   288  ASP288     -0.2867
     94  CB        44.6680   38.1340   14.6730 C.3   288  ASP288      0.1410
     95  CG        44.1180   38.7250   13.4220 C.2   288  ASP288      0.3668
     96  OD1       44.1710   38.0720   12.3610 O.co2 288  ASP288     -0.2456
     97  OD2       43.6750   39.9100   13.5190 O.co2 288  ASP288     -0.2456
     98  N         45.8730   44.5900    4.6190 N.3   348  CYS348     -0.1235
     99  CA        46.4790   45.7480    5.2140 C.3   348  CYS348      0.1677
    100  C         46.5720   46.9350    4.2220 C.2   348  CYS348      0.2270
    101  O         47.3120   46.9420    3.2590 O.2   348  CYS348     -0.2867
    102  CB        47.8810   45.5000    5.7070 C.3   348  CYS348      0.0956
    103  SG        48.6390   46.6850    6.8320 S.3   348  CYS348     -0.0801
    104  N         49.7100   38.4760   19.6790 N.3   386  ILE386     -0.1231
    105  CA        49.0400   38.8170   18.4410 C.3   386  ILE386      0.1692
    106  C         50.0580   39.3390   17.4160 C.2   386  ILE386      0.2591
    107  O         49.8710   39.0940   16.2280 O.2   386  ILE386     -0.2718
    108  CB        47.8980   39.8800   18.5800 C.3   386  ILE386      0.0266
    109  CG1       47.0400   39.6010   19.8250 C.3   386  ILE386      0.0019
    110  CG2       47.0850   39.8950   17.2650 C.3   386  ILE386      0.0020
    111  CD1       46.2530   38.2960   19.8300 C.3   386  ILE386      0.0001
    112  N         50.9300   40.1970   17.9160 N.am  387  VAL387     -0.1980
    113  CA        52.0470   40.7260   17.0980 C.3   387  VAL387      0.1595
    114  C         53.2870   40.3610   17.9250 C.2   387  VAL387      0.2287
    115  O         53.2190   40.5950   19.1530 O.2   387  VAL387     -0.2864
    116  CB        51.9030   42.2630   16.9450 C.3   387  VAL387      0.0276
    117  CG1       53.0560   42.7900   16.0730 C.3   387  VAL387      0.0022
    118  CG2       50.5790   42.6690   16.3750 C.3   387  VAL387      0.0022
@<TRIPOS>BOND
     1   101   100    2
     2   100    99    1
     3    98    99    1
     4    99   102    1
     5   102   103    1
     6    35    36    1
     7    41    39    1
     8    36    37    1
     9    36    39    1
    10    38    37    1
    11    64    62    1
    12    39    40    1
    13    87    89    1
    14    87    88    1
    15    87    84    1
    16    86    85    2
    17    81    80    1
    18    96    95   ar
    19    83    84    1
    20    80    82    1
    21    80    77    1
    22    62    63    1
    23    62    61    1
    24    84    85    1
    25    78    79    2
    26    78    77    1
    27    75    74    2
    28    95    97   ar
    29    95    94    1
    30    74    73    1
    31    73    72    1
    32    93    92    2
    33    61    58    1
    34    77    76    1
    35    90    91    1
    36    92    91    1
    37    60    59    2
    38    27    26    2
    39    59    58    1
    40    26    25    1
    41    91    94    1
    42    72    67   am
    43    58    57    1
    44    23    22    1
    45    28    25    1
    46    28    29    1
    47    25    24    1
    48    67    68    2
    49    67    66    1
    50   117   116    1
    51    22    20   ar
    52    22    21   ar
    53    20    18   ar
    54   107   106    2
    55   118   116    1
    56     9    11   ar
    57     9     7   ar
    58   116   113    1
    59    65    66    1
    60   113   112    1
    61   113   114    1
    62    29    31   ar
    63    29    30   ar
    64    66    69    1
    65    11    10   ar
    66   110   108    1
    67    21    19   ar
    68    31    33   ar
    69     7     6   ar
    70    18    17   ar
    71   106   112   am
    72   106   105    1
    73    69    70    1
    74    69    71    1
    75     1     2    1
    76   114   115    2
    77    30    32   ar
    78   105   108    1
    79   105   104    1
    80    33    34   ar
    81    19    17   ar
    82   108   109    1
    83    10     8   ar
    84    17    16    1
    85     6     8   ar
    86     6     5    1
    87     2     5    1
    88     2     3    1
    89    15    14    2
    90    32    34   ar
    91    56    54    1
    92    14    13    1
    93   109   111    1
    94     3     4    2
    95    16    13    1
    96    54    55    1
    97    54    51    1
    98    13    12    1
    99    51    52    1
   100    51    50    1
   101    53    52    2
   102    50    44   am
   103    45    44    2
   104    48    47    1
   105    48    49    1
   106    46    47    1
   107    46    43    1
   108    44    43    1
   109    43    42    1
