@<TRIPOS>MOLECULE
tmp/1phgA01.pdb
 127 117 0 0 0
SMALL
GASTEIGER

@<TRIPOS>ATOM
      1  N         40.3760   37.7850   18.1460 N.3    78  PHE78      -0.1241
      2  CA        41.4840   37.6620   19.0910 C.3    78  PHE78       0.1605
      3  C         41.0950   36.5350   20.0580 C.2    78  PHE78       0.2264
      4  O         39.9490   36.4330   20.4640 O.2    78  PHE78      -0.2867
      5  CB        41.7880   38.9400   19.8480 C.3    78  PHE78       0.0534
      6  CG        42.6290   40.0330   19.2750 C.ar   78  PHE78      -0.0203
      7  CD1       42.7140   40.2970   17.9090 C.ar   78  PHE78      -0.0042
      8  CD2       43.3670   40.8640   20.1350 C.ar   78  PHE78      -0.0042
      9  CE1       43.5800   41.2130   17.3720 C.ar   78  PHE78      -0.0003
     10  CE2       44.2300   41.8290   19.6710 C.ar   78  PHE78      -0.0003
     11  CZ        44.3450   41.9840   18.2670 C.ar   78  PHE78      -0.0000
     12  N         37.0320   43.0930   21.7320 N.3    87  TYR87      -0.1241
     13  CA        37.5570   43.7060   20.5020 C.3    87  TYR87       0.1605
     14  C         36.4090   44.3550   19.7230 C.2    87  TYR87       0.2264
     15  O         35.5330   43.6150   19.2470 O.2    87  TYR87      -0.2867
     16  CB        38.2900   42.6910   19.6200 C.3    87  TYR87       0.0534
     17  CG        39.1580   43.2210   18.5110 C.ar   87  TYR87      -0.0201
     18  CD1       40.4880   43.6260   18.7430 C.ar   87  TYR87      -0.0009
     19  CD2       38.6270   43.4110   17.2310 C.ar   87  TYR87      -0.0009
     20  CE1       41.2890   44.0820   17.7050 C.ar   87  TYR87       0.0417
     21  CE2       39.4130   43.9480   16.2130 C.ar   87  TYR87       0.0417
     22  CZ        40.7500   44.2480   16.4400 C.ar   87  TYR87       0.1957
     23  OH        41.5430   44.7150   15.4460 O.3    87  TYR87      -0.2866
     24  N         37.4540   47.1880   17.2850 N.3    89  PHE89      -0.1241
     25  CA        38.0660   48.0680   16.2760 C.3    89  PHE89       0.1605
     26  C         37.3830   47.9730   14.9140 C.2    89  PHE89       0.2264
     27  O         36.8540   46.9390   14.5000 O.2    89  PHE89      -0.2867
     28  CB        39.5580   48.0130   16.2070 C.3    89  PHE89       0.0534
     29  CG        40.3820   48.2350   17.4120 C.ar   89  PHE89      -0.0203
     30  CD1       40.1080   49.2700   18.2880 C.ar   89  PHE89      -0.0042
     31  CD2       41.4760   47.4300   17.6850 C.ar   89  PHE89      -0.0042
     32  CE1       40.8720   49.5170   19.4130 C.ar   89  PHE89      -0.0003
     33  CE2       42.2830   47.6480   18.8100 C.ar   89  PHE89      -0.0003
     34  CZ        41.9690   48.7020   19.6700 C.ar   89  PHE89      -0.0000
     35  N         38.3340   46.1960   11.4080 N.3    92  THR92      -0.1274
     36  CA        38.8180   44.8910   11.7630 C.3    92  THR92       0.1548
     37  C         37.8020   43.9940   12.4250 C.3    92  THR92       0.2036
     38  O         37.9130   42.7550   12.1240 O.3    92  THR92      -0.2187
     39  CB        40.2680   44.7090   12.2950 C.3    92  THR92       0.1721
     40  OG1       40.3610   45.4320   13.5410 O.3    92  THR92      -0.2215
     41  CG2       41.5050   45.1380   11.4100 C.3    92  THR92       0.0371
     42  N         47.8120   44.9230   24.3380 N.3   175  MET175     -0.1230
     43  CA        46.8470   44.2480   23.4680 C.3   175  MET175      0.1702
     44  C         47.4100   43.0500   22.7450 C.2   175  MET175      0.2593
     45  O         46.6960   42.0360   22.5730 O.2   175  MET175     -0.2718
     46  CB        46.1430   45.2140   22.4950 C.3   175  MET175      0.0401
     47  CG        45.3610   46.2200   23.2870 C.3   175  MET175      0.0596
     48  SD        44.6770   47.4920   22.1830 S.3   175  MET175     -0.1393
     49  CE        43.9330   48.5410   23.4540 C.3   175  MET175      0.0692
     50  N         48.6350   43.1420   22.2640 N.am  176  THR176     -0.1953
     51  CA        49.2940   42.1810   21.4130 C.3   176  THR176      0.1897
     52  C         50.2010   41.2280   22.1830 C.2   176  THR176      0.2313
     53  O         50.2300   40.0100   21.9090 O.2   176  THR176     -0.2863
     54  CB        50.0890   42.9240   20.2700 C.3   176  THR176      0.1794
     55  OG1       50.9800   43.8310   21.0300 O.3   176  THR176     -0.2208
     56  CG2       49.2570   43.7410   19.2900 C.3   176  THR176      0.0378
     57  N         42.4310   51.4310   15.9790 N.3   235  LEU235     -0.1245
     58  CA        43.1560   50.4980   15.1470 C.3   235  LEU235      0.1561
     59  C         44.4260   51.1220   14.5620 C.2   235  LEU235      0.2260
     60  O         45.4360   50.4000   14.3510 O.2   235  LEU235     -0.2867
     61  CB        42.2630   49.9630   14.0160 C.3   235  LEU235      0.0270
     62  CG        42.9840   48.9080   13.1620 C.3   235  LEU235      0.0019
     63  CD1       43.2870   47.6310   13.9190 C.3   235  LEU235      0.0001
     64  CD2       42.1760   48.6810   11.9200 C.3   235  LEU235      0.0001
     65  N         47.4160   51.3950   17.0000 N.3   238  VAL238     -0.1231
     66  CA        48.0960   50.1010   17.1660 C.3   238  VAL238      0.1692
     67  C         48.9240   49.8250   15.9210 C.2   238  VAL238      0.2592
     68  O         50.0680   49.3770   16.0490 O.2   238  VAL238     -0.2718
     69  CB        47.0110   49.0060   17.4540 C.3   238  VAL238      0.0266
     70  CG1       47.6940   47.6440   17.5690 C.3   238  VAL238      0.0020
     71  CG2       46.2780   49.2930   18.7700 C.3   238  VAL238      0.0020
     72  N         48.4080   50.1190   14.7600 N.am  239  GLY239     -0.1957
     73  CA        49.1170   49.8720   13.4960 C.3   239  GLY239      0.1869
     74  C         50.3860   50.7020   13.4540 C.2   239  GLY239      0.2309
     75  O         51.4840   50.2230   13.0800 O.2   239  GLY239     -0.2863
     76  N         53.5580   47.6480   14.8480 N.3   243  THR243     -0.1218
     77  CA        53.8090   46.7640   13.7080 C.3   243  THR243      0.1862
     78  C         55.1940   46.8180   13.1070 C.2   243  THR243      0.2287
     79  O         56.0570   45.9820   13.3270 O.2   243  THR243     -0.2866
     80  CB        52.6210   46.9110   12.6660 C.3   243  THR243      0.1770
     81  OG1       52.6730   48.3080   12.2490 O.3   243  THR243     -0.2211
     82  CG2       51.2350   46.5300   13.1560 C.3   243  THR243      0.0375
     83  N         52.6270   38.4490   12.6740 N.3   286  VAL286     -0.1245
     84  CA        51.2510   38.6030   13.1440 C.3   286  VAL286      0.1561
     85  C         50.5370   37.2580   13.1630 C.2   286  VAL286      0.2260
     86  O         50.5940   36.4750   12.2030 O.2   286  VAL286     -0.2867
     87  CB        50.5460   39.6530   12.2120 C.3   286  VAL286      0.0252
     88  CG1       49.0560   39.7880   12.4800 C.3   286  VAL286      0.0019
     89  CG2       51.1550   41.0310   12.4300 C.3   286  VAL286      0.0019
     90  N         46.4550   36.5080   14.0580 N.3   288  ASP288     -0.1239
     91  CA        45.0910   36.6310   14.6880 C.3   288  ASP288      0.1674
     92  C         44.1940   35.5090   14.1540 C.2   288  ASP288      0.2266
     93  O         44.6130   34.5130   13.5630 O.2   288  ASP288     -0.2867
     94  CB        44.5500   38.0220   14.7340 C.3   288  ASP288      0.1410
     95  CG        44.0410   38.5730   13.4520 C.2   288  ASP288      0.3668
     96  OD1       44.1210   37.9940   12.3740 O.co2 288  ASP288     -0.2456
     97  OD2       43.4910   39.6870   13.5280 O.co2 288  ASP288     -0.2456
     98  N         48.9720   34.4560   10.2300 N.3   313  GLN313     -0.1245
     99  CA        49.5300   35.0870    9.0250 C.3   313  GLN313      0.1566
    100  C         50.9810   34.7280    8.8060 C.2   313  GLN313      0.2260
    101  O         51.5010   34.4960    7.6870 O.2   313  GLN313     -0.2867
    102  CB        49.3050   36.6030    9.0810 C.3   313  GLN313      0.0367
    103  CG        47.8760   36.9840    8.8760 C.3   313  GLN313      0.0905
    104  CD        47.0390   37.1550   10.1170 C.2   313  GLN313      0.2608
    105  OE1       47.3210   36.7940   11.2500 O.2   313  GLN313     -0.2717
    106  NE2       45.8280   37.7300    9.8890 N.am  313  GLN313     -0.0878
    107  N         45.8870   44.4520    4.7430 N.3   348  CYS348     -0.1235
    108  CA        46.4150   45.6050    5.4150 C.3   348  CYS348      0.1677
    109  C         46.6050   46.7750    4.4470 C.2   348  CYS348      0.2270
    110  O         47.2970   46.6920    3.4350 O.2   348  CYS348     -0.2867
    111  CB        47.7230   45.2390    6.0960 C.3   348  CYS348      0.0956
    112  SG        48.6370   46.6180    6.7390 S.3   348  CYS348     -0.0801
    113  N         49.9790   38.2870   19.6700 N.3   386  ILE386     -0.1231
    114  CA        49.2430   38.6810   18.4710 C.3   386  ILE386      0.1692
    115  C         50.2710   39.2160   17.4790 C.2   386  ILE386      0.2591
    116  O         50.1060   38.9080   16.2920 O.2   386  ILE386     -0.2718
    117  CB        48.0930   39.7130   18.7160 C.3   386  ILE386      0.0266
    118  CG1       47.1060   39.2360   19.8100 C.3   386  ILE386      0.0019
    119  CG2       47.3700   40.1480   17.4060 C.3   386  ILE386      0.0020
    120  CD1       46.3170   37.9430   19.4560 C.3   386  ILE386      0.0001
    121  N         51.1120   40.0770   17.9970 N.am  387  VAL387     -0.1980
    122  CA        52.2380   40.6380   17.1490 C.3   387  VAL387      0.1595
    123  C         53.4960   40.2540   17.9180 C.2   387  VAL387      0.2287
    124  O         53.5300   40.4750   19.1560 O.2   387  VAL387     -0.2864
    125  CB        52.0460   42.1360   16.9190 C.3   387  VAL387      0.0276
    126  CG1       53.1380   42.6790   15.9380 C.3   387  VAL387      0.0022
    127  CG2       50.6910   42.5140   16.3360 C.3   387  VAL387      0.0022
@<TRIPOS>BOND
     1   110   109    2
     2   109   108    1
     3   107   108    1
     4   108   111    1
     5   111   112    1
     6   101   100    2
     7   100    99    1
     8   103   102    1
     9   103   104    1
    10    99   102    1
    11    99    98    1
    12   106   104   am
    13   104   105    2
    14    35    36    1
    15    41    39    1
    16    36    39    1
    17    36    37    1
    18    64    62    1
    19    38    37    1
    20    86    85    2
    21    87    89    1
    22    87    88    1
    23    87    84    1
    24    81    80    1
    25    39    40    1
    26    96    95   ar
    27    80    82    1
    28    80    77    1
    29    83    84    1
    30    75    74    2
    31    78    79    2
    32    78    77    1
    33    84    85    1
    34    62    63    1
    35    62    61    1
    36    95    97   ar
    37    95    94    1
    38    74    73    1
    39    73    72    1
    40    93    92    2
    41    77    76    1
    42    61    58    1
    43    90    91    1
    44    92    91    1
    45    60    59    2
    46    27    26    2
    47    59    58    1
    48    91    94    1
    49    72    67   am
    50    26    25    1
    51    58    57    1
    52    23    22    1
    53    67    68    2
    54    67    66    1
    55   126   125    1
    56    28    25    1
    57    28    29    1
    58    21    22   ar
    59    21    19   ar
    60    25    24    1
    61   116   115    2
    62   127   125    1
    63    22    20   ar
    64   125   122    1
    65    65    66    1
    66   122   123    1
    67   122   121    1
    68    66    69    1
    69    19    17   ar
    70     9     7   ar
    71     9    11   ar
    72   119   117    1
    73    29    31   ar
    74    29    30   ar
    75    69    70    1
    76    69    71    1
    77   115   121   am
    78   115   114    1
    79    31    33   ar
    80    20    18   ar
    81     7     6   ar
    82   123   124    2
    83     1     2    1
    84    11    10   ar
    85    30    32   ar
    86   114   117    1
    87   114   113    1
    88    17    18   ar
    89    17    16    1
    90   117   118    1
    91    33    34   ar
    92     2     5    1
    93     2     3    1
    94    15    14    2
    95     6     5    1
    96     6     8   ar
    97    56    54    1
    98    32    34   ar
    99   120   118    1
   100    16    13    1
   101    10     8   ar
   102    14    13    1
   103     3     4    2
   104    54    55    1
   105    54    51    1
   106    13    12    1
   107    51    52    1
   108    51    50    1
   109    53    52    2
   110    48    47    1
   111    48    49    1
   112    50    44   am
   113    46    47    1
   114    46    43    1
   115    45    44    2
   116    44    43    1
   117    43    42    1
