@<TRIPOS>MOLECULE
tmp/1phnA00.pdb
 229 225 0 0 0
SMALL
GASTEIGER

@<TRIPOS>ATOM
      1  N         14.6460  -48.7360    4.3980 N.3    59  VAL59      -0.1231
      2  CA        15.5610  -47.6500    4.0870 C.3    59  VAL59       0.1692
      3  C         17.0010  -48.1390    4.1940 C.2    59  VAL59       0.2592
      4  O         17.8060  -47.9090    3.2790 O.2    59  VAL59      -0.2718
      5  CB        15.3640  -46.4270    5.0260 C.3    59  VAL59       0.0266
      6  CG1       16.3920  -45.3520    4.7160 C.3    59  VAL59       0.0020
      7  CG2       13.9620  -45.8500    4.8430 C.3    59  VAL59       0.0020
      8  N         17.2990  -48.8440    5.2770 N.am   60  TYR60      -0.1976
      9  CA        18.6400  -49.3670    5.5230 C.3    60  TYR60       0.1639
     10  C         19.0350  -50.3520    4.4400 C.2    60  TYR60       0.2290
     11  O         20.2020  -50.4290    4.0760 O.2    60  TYR60      -0.2864
     12  CB        18.7380  -50.0500    6.8960 C.3    60  TYR60       0.0560
     13  CG        18.3840  -49.1740    8.0670 C.ar   60  TYR60      -0.0198
     14  CD1       18.5730  -47.7910    8.0180 C.ar   60  TYR60      -0.0009
     15  CD2       17.8130  -49.7190    9.2160 C.ar   60  TYR60      -0.0009
     16  CE1       18.1850  -46.9660    9.0870 C.ar   60  TYR60       0.0417
     17  CE2       17.4330  -48.9190   10.2890 C.ar   60  TYR60       0.0417
     18  CZ        17.6140  -47.5440   10.2180 C.ar   60  TYR60       0.1957
     19  OH        17.2020  -46.7670   11.2690 O.3    60  TYR60      -0.2866
     20  N         23.8200  -45.7710    4.8940 N.3    66  THR66      -0.1218
     21  CA        23.2320  -45.0800    6.0430 C.3    66  THR66       0.1862
     22  C         23.4700  -45.7920    7.3840 C.2    66  THR66       0.2287
     23  O         23.3730  -45.1760    8.4420 O.2    66  THR66      -0.2866
     24  CB        21.7070  -44.8070    5.8700 C.3    66  THR66       0.1770
     25  OG1       20.9970  -46.0430    5.8040 O.3    66  THR66      -0.2211
     26  CG2       21.4440  -43.9920    4.6210 C.3    66  THR66       0.0375
     27  N         26.8190  -37.9500   12.6620 N.3    72  PRO72      -0.2102
     28  CA        25.5340  -37.7810   13.3500 C.3    72  PRO72       0.1504
     29  C         24.2810  -37.8660   12.4550 C.2    72  PRO72       0.2576
     30  O         23.2030  -38.2340   12.9280 O.2    72  PRO72      -0.2718
     31  CB        25.6720  -36.4070   14.0070 C.3    72  PRO72       0.0282
     32  CG        26.5860  -35.6480   13.0570 C.3    72  PRO72       0.0208
     33  CD        27.6200  -36.7110   12.7000 C.3    72  PRO72       0.0893
     34  N         24.4340  -37.5790   11.1680 N.am   73  GLN73      -0.1966
     35  CA        23.2950  -37.6110   10.2690 C.3    73  GLN73       0.1733
     36  C         22.9070  -39.0190    9.8510 C.2    73  GLN73       0.2616
     37  O         21.8410  -39.2120    9.2910 O.2    73  GLN73      -0.2715
     38  CB        23.5390  -36.7440    9.0200 C.3    73  GLN73       0.0408
     39  CG        24.5840  -37.2660    8.0410 C.3    73  GLN73       0.0908
     40  CD        25.9800  -36.7300    8.3330 C.2    73  GLN73       0.2608
     41  OE1       26.5070  -36.8960    9.4330 O.2    73  GLN73      -0.2717
     42  NE2       26.5970  -36.1120    7.3380 N.am   73  GLN73      -0.0878
     43  N         23.7460  -40.0030   10.1560 N.am   74  TYR74      -0.1960
     44  CA        23.4700  -41.3780    9.7460 C.3    74  TYR74       0.1771
     45  C         22.9230  -42.2740   10.8410 C.2    74  TYR74       0.2619
     46  O         23.0350  -41.9650   12.0190 O.2    74  TYR74      -0.2715
     47  CB        24.7510  -42.0160    9.1920 C.3    74  TYR74       0.0574
     48  CG        25.3410  -41.2450    8.0420 C.ar   74  TYR74      -0.0198
     49  CD1       24.6720  -41.1490    6.8160 C.ar   74  TYR74      -0.0009
     50  CD2       26.5490  -40.5850    8.1880 C.ar   74  TYR74      -0.0009
     51  CE1       25.2000  -40.4060    5.7710 C.ar   74  TYR74       0.0417
     52  CE2       27.0880  -39.8420    7.1550 C.ar   74  TYR74       0.0417
     53  CZ        26.4160  -39.7500    5.9520 C.ar   74  TYR74       0.1957
     54  OH        26.9720  -38.9710    4.9430 O.3    74  TYR74      -0.2866
     55  N         22.3930  -43.4230   10.4300 N.am   75  ALA75      -0.1977
     56  CA        21.8420  -44.4270   11.3440 C.3    75  ALA75       0.1597
     57  C         22.8950  -45.5000   11.6140 C.2    75  ALA75       0.2287
     58  O         22.5850  -46.6830   11.7240 O.2    75  ALA75      -0.2864
     59  CB        20.5820  -45.0600   10.7480 C.3    75  ALA75       0.0319
     60  N         21.4590  -42.8020   16.2390 N.3    80  GLY80      -0.1225
     61  CA        21.0510  -42.5740   14.8630 C.3    80  GLY80       0.1811
     62  C         19.8680  -43.4300   14.4700 C.2    80  GLY80       0.2280
     63  O         18.9400  -42.9390   13.8240 O.2    80  GLY80      -0.2866
     64  N         16.6960  -42.2320   16.2230 N.3    83  LYS83      -0.1231
     65  CA        16.1370  -41.0080   15.6250 C.3    83  LYS83       0.1693
     66  C         15.5050  -41.2610   14.2880 C.2    83  LYS83       0.2592
     67  O         14.5740  -40.5700   13.9100 O.2    83  LYS83      -0.2718
     68  CB        17.2030  -39.9100   15.4880 C.3    83  LYS83       0.0285
     69  CG        17.1580  -38.9610   16.6550 C.3    83  LYS83       0.0035
     70  CD        18.3330  -38.0520   16.7450 C.3    83  LYS83       0.0206
     71  CE        18.2580  -37.3720   18.0780 C.3    83  LYS83       0.1093
     72  NZ        19.2340  -36.2910   18.1590 N.3    83  LYS83      -0.1314
     73  N         16.0360  -42.2140   13.5300 N.am   84  CYS84      -0.1970
     74  CA        15.4780  -42.5440   12.2230 C.3    84  CYS84       0.1712
     75  C         14.0850  -43.1550   12.3740 C.2    84  CYS84       0.2296
     76  O         13.1500  -42.7590   11.6720 O.2    84  CYS84      -0.2864
     77  CB        16.4000  -43.4930   11.4530 C.3    84  CYS84       0.0983
     78  SG        15.7900  -43.7830    9.7570 S.3    84  CYS84      -0.0798
     79  N         12.2120  -42.8300   14.9020 N.3    86  ARG86      -0.1231
     80  CA        11.3870  -41.7630   15.4750 C.3    86  ARG86       0.1694
     81  C         10.8110  -40.8810   14.3570 C.2    86  ARG86       0.2592
     82  O          9.6120  -40.6210   14.3260 O.2    86  ARG86      -0.2718
     83  CB        12.2120  -40.9040   16.4300 C.3    86  ARG86       0.0321
     84  CG        11.4730  -39.6910   16.9910 C.3    86  ARG86       0.0489
     85  CD        12.4570  -38.5800   17.4010 C.3    86  ARG86       0.2205
     86  NE        13.0470  -37.9140   16.2390 N.pl3  86  ARG86      -0.0865
     87  CZ        14.0430  -37.0400   16.3120 C.cat  86  ARG86       0.5346
     88  NH1       14.5570  -36.7200   17.4900 N.pl3  86  ARG86       0.1354
     89  NH2       14.5190  -36.4740   15.2170 N.pl3  86  ARG86       0.1354
     90  N         11.6690  -40.4400   13.4400 N.am   87  ASP87      -0.1960
     91  CA        11.2560  -39.6010   12.3200 C.3    87  ASP87       0.1840
     92  C         10.1740  -40.2770   11.4910 C.2    87  ASP87       0.2621
     93  O          9.2070  -39.6330   11.0780 O.2    87  ASP87      -0.2715
     94  CB        12.4470  -39.3000   11.3920 C.3    87  ASP87       0.1450
     95  CG        13.4150  -38.2880   11.9670 C.2    87  ASP87       0.3671
     96  OD1       13.2550  -37.8680   13.1240 O.co2  87  ASP87      -0.2456
     97  OD2       14.3730  -37.9220   11.2570 O.co2  87  ASP87      -0.2456
     98  N         10.3950  -41.5440   11.1490 N.am   88  ILE88      -0.1977
     99  CA         9.4270  -42.3010   10.3670 C.3    88  ILE88       0.1596
    100  C          8.0970  -42.3760   11.1130 C.2    88  ILE88       0.2287
    101  O          7.0330  -42.2770   10.5070 O.2    88  ILE88      -0.2864
    102  CB         9.9590  -43.7280   10.0620 C.3    88  ILE88       0.0276
    103  CG1       11.0810  -43.5660    9.0200 C.3    88  ILE88       0.0022
    104  CG2        8.8670  -44.5990    9.4650 C.3    88  ILE88       0.0022
    105  CD1       11.9450  -44.8330    8.8600 C.3    88  ILE88       0.0001
    106  N          7.0060  -40.1520   13.1480 N.3    90  TYR90      -0.1227
    107  CA         6.3780  -38.8300   13.0440 C.3    90  TYR90       0.1736
    108  C          5.5830  -38.7260   11.7410 C.2    90  TYR90       0.2595
    109  O          4.4680  -38.2280   11.7330 O.2    90  TYR90      -0.2718
    110  CB         7.4100  -37.6930   13.0650 C.3    90  TYR90       0.0548
    111  CG         8.0400  -37.4140   14.3940 C.ar   90  TYR90      -0.0200
    112  CD1        7.5400  -37.9660   15.5660 C.ar   90  TYR90      -0.0009
    113  CD2        9.1430  -36.5730   14.4870 C.ar   90  TYR90      -0.0009
    114  CE1        8.1340  -37.6760   16.8010 C.ar   90  TYR90       0.0417
    115  CE2        9.7340  -36.2760   15.7100 C.ar   90  TYR90       0.0417
    116  CZ         9.2240  -36.8280   16.8610 C.ar   90  TYR90       0.1957
    117  OH         9.7890  -36.5210   18.0870 O.3    90  TYR90      -0.2866
    118  N          6.1460  -39.1870   10.6310 N.am   91  TYR91      -0.1976
    119  CA         5.4300  -39.1290    9.3590 C.3    91  TYR91       0.1639
    120  C          4.1560  -39.9620    9.3980 C.2    91  TYR91       0.2290
    121  O          3.1110  -39.5330    8.9240 O.2    91  TYR91      -0.2864
    122  CB         6.3140  -39.6180    8.2320 C.3    91  TYR91       0.0560
    123  CG         7.2320  -38.5730    7.6410 C.ar   91  TYR91      -0.0198
    124  CD1        8.5010  -38.3260    8.1710 C.ar   91  TYR91      -0.0009
    125  CD2        6.8480  -37.8580    6.5020 C.ar   91  TYR91      -0.0009
    126  CE1        9.3710  -37.3980    7.5860 C.ar   91  TYR91       0.0417
    127  CE2        7.7100  -36.9330    5.9080 C.ar   91  TYR91       0.0417
    128  CZ         8.9640  -36.7080    6.4530 C.ar   91  TYR91       0.1957
    129  OH         9.8210  -35.7860    5.8650 O.3    91  TYR91      -0.2866
    130  N          2.4020  -40.7800   12.0510 N.3    93  ARG93      -0.1231
    131  CA         1.4710  -40.1220   12.9490 C.3    93  ARG93       0.1694
    132  C          0.7830  -38.9320   12.2430 C.2    93  ARG93       0.2591
    133  O         -0.4210  -38.7420   12.3630 O.2    93  ARG93      -0.2718
    134  CB         2.1910  -39.6980   14.2470 C.3    93  ARG93       0.0321
    135  CG         1.2670  -39.2090   15.3620 C.3    93  ARG93       0.0489
    136  CD         1.9100  -39.3270   16.7210 C.3    93  ARG93       0.2205
    137  NE         3.2150  -38.6610   16.7750 N.pl3  93  ARG93      -0.0865
    138  CZ         3.3920  -37.3470   16.8790 C.cat  93  ARG93       0.5346
    139  NH1        2.3470  -36.5250   16.9300 N.pl3  93  ARG93       0.1354
    140  NH2        4.6210  -36.8600   17.0150 N.pl3  93  ARG93       0.1354
    141  N          1.5360  -38.1350   11.4920 N.am   94  MET94      -0.1979
    142  CA         0.9320  -37.0040   10.7800 C.3    94  MET94       0.1605
    143  C         -0.1140  -37.4660    9.7490 C.2    94  MET94       0.2287
    144  O         -1.1010  -36.7560    9.4700 O.2    94  MET94      -0.2864
    145  CB         2.0010  -36.1670   10.0760 C.3    94  MET94       0.0413
    146  CG         2.9440  -35.4270   11.0160 C.3    94  MET94       0.0598
    147  SD         2.1160  -34.4880   12.3070 S.3    94  MET94      -0.1393
    148  CE         3.1550  -34.9240   13.6930 C.3    94  MET94       0.0692
    149  N          2.8140  -29.0930   11.2670 N.3   110  TYR110     -0.1227
    150  CA         3.7650  -29.7630   12.1450 C.3   110  TYR110      0.1736
    151  C          4.9850  -30.3650   11.4530 C.2   110  TYR110      0.2595
    152  O          6.0080  -30.6310   12.1100 O.2   110  TYR110     -0.2718
    153  CB         3.0580  -30.8710   12.9380 C.3   110  TYR110      0.0548
    154  CG         1.8410  -30.4470   13.7390 C.ar  110  TYR110     -0.0200
    155  CD1        1.7760  -29.1920   14.3440 C.ar  110  TYR110     -0.0009
    156  CD2        0.7740  -31.3300   13.9200 C.ar  110  TYR110     -0.0009
    157  CE1        0.6690  -28.8220   15.1240 C.ar  110  TYR110      0.0417
    158  CE2       -0.3370  -30.9750   14.6950 C.ar  110  TYR110      0.0417
    159  CZ        -0.3740  -29.7200   15.2940 C.ar  110  TYR110      0.1957
    160  OH        -1.4380  -29.3920   16.0960 O.3   110  TYR110     -0.2866
    161  N          4.9090  -30.5450   10.1440 N.am  111  LEU111     -0.1980
    162  CA         6.0180  -31.1840    9.4520 C.3   111  LEU111      0.1596
    163  C          6.5460  -30.4890    8.2070 C.2   111  LEU111      0.2287
    164  O          7.7550  -30.2760    8.0710 O.2   111  LEU111     -0.2864
    165  CB         5.6180  -32.6470    9.1470 C.3   111  LEU111      0.0297
    166  CG         6.6790  -33.6450    8.6570 C.3   111  LEU111      0.0022
    167  CD1        6.3490  -35.0650    9.1010 C.3   111  LEU111      0.0001
    168  CD2        6.7920  -33.5600    7.1330 C.3   111  LEU111      0.0001
    169  N         10.5150  -27.9660    6.6350 N.3   115  LEU115     -0.1245
    170  CA        11.1160  -29.2240    6.1910 C.3   115  LEU115      0.1561
    171  C         12.4140  -29.0700    5.3950 C.2   115  LEU115      0.2260
    172  O         13.4060  -29.7590    5.6600 O.2   115  LEU115     -0.2867
    173  CB        10.0990  -30.0250    5.3630 C.3   115  LEU115      0.0270
    174  CG        10.4550  -31.4530    4.9490 C.3   115  LEU115      0.0019
    175  CD1       10.8320  -32.3010    6.1630 C.3   115  LEU115      0.0001
    176  CD2        9.2600  -32.0760    4.2210 C.3   115  LEU115      0.0001
    177  N         15.3760  -27.9030    7.5910 N.3   118  ILE118     -0.1245
    178  CA        15.8360  -28.9480    8.4950 C.3   118  ILE118      0.1561
    179  C         16.6390  -30.0160    7.7510 C.2   118  ILE118      0.2260
    180  O         17.7310  -30.3810    8.1740 O.2   118  ILE118     -0.2867
    181  CB        14.6480  -29.5670    9.3050 C.3   118  ILE118      0.0252
    182  CG1       14.5310  -28.7760   10.6140 C.3   118  ILE118      0.0019
    183  CG2       14.8760  -31.0520    9.5940 C.3   118  ILE118      0.0019
    184  CD1       14.2090  -27.2860   10.4420 C.3   118  ILE118      0.0001
    185  N         20.6550  -30.4340    8.7650 N.3   122  PHE122     -0.1241
    186  CA        21.1360  -31.6620    9.4020 C.3   122  PHE122      0.1605
    187  C         21.6470  -32.7400    8.4350 C.2   122  PHE122      0.2264
    188  O         22.0180  -33.8390    8.8720 O.2   122  PHE122     -0.2867
    189  CB        20.0500  -32.2260   10.3350 C.3   122  PHE122      0.0534
    190  CG        19.7530  -31.3340   11.5100 C.ar  122  PHE122     -0.0203
    191  CD1       20.5840  -31.3470   12.6260 C.ar  122  PHE122     -0.0042
    192  CD2       18.7080  -30.4150   11.4660 C.ar  122  PHE122     -0.0042
    193  CE1       20.3830  -30.4470   13.6790 C.ar  122  PHE122     -0.0003
    194  CE2       18.4990  -29.5120   12.5130 C.ar  122  PHE122     -0.0003
    195  CZ        19.3420  -29.5310   13.6180 C.ar  122  PHE122     -0.0000
    196  N         20.0600  -34.4780    5.9990 N.3   124  LEU124     -0.1245
    197  CA        19.1430  -35.6000    5.8830 C.3   124  LEU124      0.1561
    198  C         18.6590  -35.6340    4.4450 C.2   124  LEU124      0.2260
    199  O         18.2420  -34.6200    3.8800 O.2   124  LEU124     -0.2867
    200  CB        17.9630  -35.4380    6.8540 C.3   124  LEU124      0.0270
    201  CG        18.3630  -35.2040    8.3120 C.3   124  LEU124      0.0019
    202  CD1       17.0700  -35.0190    9.0780 C.3   124  LEU124      0.0001
    203  CD2       19.1930  -36.3800    8.8690 C.3   124  LEU124      0.0001
    204  N         15.5320  -40.6290    1.5460 N.3   128  TRP128     -0.1227
    205  CA        15.4700  -41.6690    2.5870 C.3   128  TRP128      0.1737
    206  C         14.0340  -41.7920    3.0640 C.2   128  TRP128      0.2595
    207  O         13.5360  -42.8840    3.3050 O.2   128  TRP128     -0.2718
    208  CB        16.3110  -41.3220    3.8210 C.3   128  TRP128      0.0564
    209  CG        17.8030  -41.2290    3.6320 C.ar  128  TRP128      0.0003
    210  CD1       18.5600  -41.7750    2.6260 C.ar  128  TRP128      0.0946
    211  CD2       18.7210  -40.5210    4.4850 C.ar  128  TRP128      0.0152
    212  NE1       19.8880  -41.4410    2.7990 N.ar  128  TRP128     -0.2442
    213  CE2       20.0100  -40.6760    3.9350 C.ar  128  TRP128      0.0810
    214  CE3       18.5730  -39.7680    5.6590 C.ar  128  TRP128      0.0012
    215  CZ2       21.1480  -40.1010    4.5210 C.ar  128  TRP128      0.0191
    216  CZ3       19.6940  -39.2020    6.2370 C.ar  128  TRP128      0.0001
    217  CH2       20.9710  -39.3780    5.6680 C.ar  128  TRP128      0.0015
    218  N         13.3860  -40.6480    3.2350 N.am  129  TYR129     -0.1976
    219  CA        12.0140  -40.6000    3.7110 C.3   129  TYR129      0.1639
    220  C         11.0480  -41.0530    2.6250 C.2   129  TYR129      0.2290
    221  O         10.0410  -41.6810    2.9440 O.2   129  TYR129     -0.2864
    222  CB        11.6880  -39.2020    4.2350 C.3   129  TYR129      0.0560
    223  CG        12.5640  -38.8440    5.4140 C.ar  129  TYR129     -0.0198
    224  CD1       12.2300  -39.2650    6.7060 C.ar  129  TYR129     -0.0009
    225  CD2       13.7600  -38.1520    5.2450 C.ar  129  TYR129     -0.0009
    226  CE1       13.0640  -39.0050    7.7820 C.ar  129  TYR129      0.0417
    227  CE2       14.6050  -37.8990    6.3210 C.ar  129  TYR129      0.0417
    228  CZ        14.2490  -38.3220    7.5840 C.ar  129  TYR129      0.1957
    229  OH        15.0690  -38.0670    8.6530 O.3   129  TYR129     -0.2866
@<TRIPOS>BOND
     1   204   205    1
     2   205   206    1
     3   205   208    1
     4   220   221    2
     5   220   219    1
     6   210   212   ar
     7   210   209   ar
     8   212   213   ar
     9   206   218   am
    10   206   207    2
    11   218   219    1
    12     4     3    2
    13   209   208    1
    14   209   211   ar
    15   219   222    1
    16   199   198    2
    17   213   211   ar
    18   213   215   ar
    19    11    10    2
    20     2     3    1
    21     2     1    1
    22     2     5    1
    23     3     8   am
    24   176   174    1
    25   222   223    1
    26    10     9    1
    27   198   197    1
    28   211   214   ar
    29   215   217   ar
    30    26    24    1
    31     6     5    1
    32     7     5    1
    33    20    21    1
    34    54    53    1
    35   174   173    1
    36   174   175    1
    37   225   223   ar
    38   225   227   ar
    39     8     9    1
    40   173   170    1
    41   171   172    2
    42   171   170    1
    43   223   224   ar
    44     9    12    1
    45   214   216   ar
    46   217   216   ar
    47    51    53   ar
    48    51    49   ar
    49    25    24    1
    50   129   128    1
    51    24    21    1
    52   197   196    1
    53   197   200    1
    54   127   128   ar
    55   127   125   ar
    56    53    52   ar
    57    21    22    1
    58   170   169    1
    59   227   228   ar
    60   128   126   ar
    61   125   123   ar
    62   224   226   ar
    63    49    48   ar
    64   200   201    1
    65    12    13    1
    66   168   166    1
    67    52    50   ar
    68    42    40   am
    69    22    23    2
    70   228   226   ar
    71   228   229    1
    72   126   124   ar
    73   177   178    1
    74   123   124   ar
    75   123   122    1
    76   179   180    2
    77   179   178    1
    78    14    13   ar
    79    14    16   ar
    80    39    40    1
    81    39    38    1
    82    48    50   ar
    83    48    47    1
    84    13    15   ar
    85   164   163    2
    86   163   162    1
    87   122   119    1
    88   201   203    1
    89   201   202    1
    90    40    41    2
    91   187   188    2
    92   187   186    1
    93   178   181    1
    94   166   167    1
    95   166   165    1
    96   185   186    1
    97   105   103    1
    98   121   120    2
    99    38    35    1
   100   103   102    1
   101    16    18   ar
   102   165   162    1
   103    47    44    1
   104    15    17   ar
   105    37    36    2
   106   181   183    1
   107   181   182    1
   108   119   120    1
   109   119   118    1
   110   186   189    1
   111   162   161    1
   112   104   102    1
   113   144   143    2
   114    44    43    1
   115    44    45    1
   116   143   142    1
   117    78    77    1
   118    36    43   am
   119    36    35    1
   120   102    99    1
   121   145   142    1
   122   145   146    1
   123   161   151   am
   124    18    17   ar
   125    18    19    1
   126    35    34    1
   127   189   190    1
   128    99   100    1
   129    99    98    1
   130    55    45   am
   131    55    56    1
   132   184   182    1
   133   101   100    2
   134   118   108   am
   135    59    56    1
   136   142   141    1
   137    45    46    2
   138   146   147    1
   139    93    92    2
   140    98    92   am
   141    34    29   am
   142    97    95   ar
   143   149   150    1
   144    56    57    1
   145    94    95    1
   146    94    91    1
   147    77    74    1
   148   151   152    2
   149   151   150    1
   150   192   190   ar
   151   192   194   ar
   152    92    91    1
   153   141   132   am
   154   190   191   ar
   155    57    58    2
   156    76    75    2
   157   109   108    2
   158   108   107    1
   159    95    96   ar
   160   130   131    1
   161   150   153    1
   162    74    75    1
   163    74    73    1
   164   132   133    2
   165   132   131    1
   166   147   148    1
   167    91    90    1
   168    29    30    2
   169    29    28    1
   170   194   195   ar
   171   191   193   ar
   172    27    33    1
   173    27    28    1
   174    33    32    1
   175   153   154    1
   176   131   134    1
   177   107   110    1
   178   107   106    1
   179    32    31    1
   180   110   111    1
   181    28    31    1
   182    90    81   am
   183    73    66   am
   184   195   193   ar
   185   154   156   ar
   186   154   155   ar
   187    63    62    2
   188    67    66    2
   189   156   158   ar
   190   134   135    1
   191    66    65    1
   192    82    81    2
   193   155   157   ar
   194    81    80    1
   195   111   113   ar
   196   111   112   ar
   197    62    61    1
   198   113   115   ar
   199   158   159   ar
   200    61    60    1
   201    79    80    1
   202   157   159   ar
   203    89    87    1
   204   159   160    1
   205   135   136    1
   206    80    83    1
   207    68    65    1
   208    68    69    1
   209   112   114   ar
   210    65    64    1
   211   115   116   ar
   212    86    87    2
   213    86    85    1
   214    87    88    1
   215    83    84    1
   216    69    70    1
   217   136   137    1
   218    70    71    1
   219   137   138    2
   220   114   116   ar
   221   116   117    1
   222   138   139    1
   223   138   140    1
   224    84    85    1
   225    71    72    1
