@<TRIPOS>MOLECULE
tmp/1phpA00.pdb
 166 160 0 0 0
SMALL
GASTEIGER

@<TRIPOS>ATOM
      1  N         46.7800    1.6060   44.5390 N.3   195  GLY195     -0.1210
      2  CA        45.3660    1.9090   44.3010 C.3   195  GLY195      0.1956
      3  C         44.5910    1.9050   45.6220 C.2   195  GLY195      0.2611
      4  O         45.0960    1.8030   46.7370 O.2   195  GLY195     -0.2717
      5  N         43.2940    1.9770   45.5040 N.am  196  ALA196     -0.1979
      6  CA        42.3290    2.0730   46.6220 C.3   196  ALA196      0.1597
      7  C         41.8430    0.8090   47.2790 C.2   196  ALA196      0.2287
      8  O         41.9000    0.6470   48.5040 O.2   196  ALA196     -0.2864
      9  CB        41.0530    2.8030   46.1140 C.3   196  ALA196      0.0319
     10  N         39.4110   -4.5180   43.5650 N.3   200  ASP200     -0.1225
     11  CA        39.7420   -4.1170   42.1880 C.3   200  ASP200      0.1805
     12  C         40.9730   -4.8060   41.6260 C.2   200  ASP200      0.2597
     13  O         41.1630   -4.8810   40.4130 O.2   200  ASP200     -0.2718
     14  CB        40.0550   -2.6020   42.2350 C.3   200  ASP200      0.1424
     15  CG        38.8330   -1.7030   42.3350 C.2   200  ASP200      0.3668
     16  OD1       37.6760   -2.1850   42.3580 O.co2 200  ASP200     -0.2456
     17  OD2       38.9520   -0.4690   42.3730 O.co2 200  ASP200     -0.2456
     18  N         41.8680   -5.2850   42.5000 N.am  201  LYS201     -0.1979
     19  CA        43.1160   -5.9010   42.0720 C.3   201  LYS201      0.1596
     20  C         43.2570   -7.4000   42.3250 C.2   201  LYS201      0.2287
     21  O         44.3920   -7.8870   42.0840 O.2   201  LYS201     -0.2864
     22  CB        44.2840   -5.1990   42.8040 C.3   201  LYS201      0.0298
     23  CG        44.2680   -3.6630   42.8040 C.3   201  LYS201      0.0038
     24  CD        44.2000   -3.0890   41.3570 C.3   201  LYS201      0.0206
     25  CE        44.3300   -1.5710   41.5560 C.3   201  LYS201      0.1093
     26  NZ        44.2770   -0.7790   40.3400 N.3   201  LYS201     -0.1314
     27  N         49.3500    2.0560   48.4890 N.3   219  GLY219     -0.1210
     28  CA        47.9990    2.6160   48.2780 C.3   219  GLY219      0.1956
     29  C         47.1010    2.2410   49.4620 C.2   219  GLY219      0.2612
     30  O         47.5870    1.8010   50.4980 O.2   219  GLY219     -0.2717
     31  N         45.8070    2.3460   49.3020 N.am  220  GLY220     -0.1956
     32  CA        44.8220    2.0020   50.3980 C.3   220  GLY220      0.1869
     33  C         44.6910    0.4990   50.5120 C.2   220  GLY220      0.2309
     34  O         44.2760   -0.0890   51.4840 O.2   220  GLY220     -0.2863
     35  N         46.2520   -1.4900   53.5270 N.3   223  TYR223     -0.1241
     36  CA        45.7450   -1.5740   54.9400 C.3   223  TYR223      0.1605
     37  C         44.9760   -2.8370   55.2330 C.2   223  TYR223      0.2264
     38  O         44.9250   -3.2460   56.4210 O.2   223  TYR223     -0.2867
     39  CB        45.0470   -0.2660   55.3810 C.3   223  TYR223      0.0534
     40  CG        46.0900    0.8050   55.1060 C.ar  223  TYR223     -0.0201
     41  CD1       47.3310    0.8140   55.7160 C.ar  223  TYR223     -0.0009
     42  CD2       45.8100    1.7420   54.1010 C.ar  223  TYR223     -0.0009
     43  CE1       48.3030    1.7780   55.3590 C.ar  223  TYR223      0.0417
     44  CE2       46.7450    2.7240   53.7070 C.ar  223  TYR223      0.0417
     45  CZ        47.9750    2.7210   54.3380 C.ar  223  TYR223      0.1957
     46  OH        48.9500    3.6400   54.0140 O.3   223  TYR223     -0.2866
     47  N         41.2930    3.1670   54.7310 N.3   237  LEU237     -0.1245
     48  CA        40.4520    2.2950   53.8610 C.3   237  LEU237      0.1561
     49  C         40.7730    0.8430   54.2060 C.2   237  LEU237      0.2260
     50  O         41.9560    0.4010   54.3200 O.2   237  LEU237     -0.2867
     51  CB        40.9230    2.6120   52.4400 C.3   237  LEU237      0.0270
     52  CG        40.0050    3.1500   51.3760 C.3   237  LEU237      0.0019
     53  CD1       39.5370    4.4850   51.9050 C.3   237  LEU237      0.0001
     54  CD2       40.8550    3.2810   50.1320 C.3   237  LEU237      0.0001
     55  N         40.5900   14.2120   56.3270 N.3   272  PHE272     -0.1241
     56  CA        40.7040   13.9720   54.8870 C.3   272  PHE272      0.1605
     57  C         40.7300   15.3190   54.1560 C.2   272  PHE272      0.2264
     58  O         39.6890   15.7140   53.6300 O.2   272  PHE272     -0.2867
     59  CB        39.5840   13.0040   54.5030 C.3   272  PHE272      0.0534
     60  CG        40.0370   12.4300   53.1960 C.ar  272  PHE272     -0.0203
     61  CD1       41.0490   11.4690   53.2330 C.ar  272  PHE272     -0.0042
     62  CD2       39.4980   12.8920   51.9970 C.ar  272  PHE272     -0.0042
     63  CE1       41.5110   10.9320   52.0300 C.ar  272  PHE272     -0.0003
     64  CE2       39.9580   12.3620   50.7990 C.ar  272  PHE272     -0.0003
     65  CZ        40.9770   11.3920   50.8220 C.ar  272  PHE272     -0.0000
     66  N         45.7960    6.6060   57.3740 N.3   292  ALA292     -0.1231
     67  CA        47.0870    6.5820   56.6190 C.3   292  ALA292      0.1694
     68  C         46.7280    6.8790   55.1300 C.2   292  ALA292      0.2588
     69  O         45.9640    6.1350   54.4550 O.2   292  ALA292     -0.2718
     70  CB        47.6530    5.1600   56.7640 C.3   292  ALA292      0.0304
     71  N         47.2650    7.9550   54.5990 N.am  293  LEU293     -0.2033
     72  CA        46.9950    8.4070   53.2180 C.3   293  LEU293      0.1282
     73  C         48.2200    8.3070   52.2770 C.3   293  LEU293      0.2036
     74  O         48.0070    8.6860   51.0540 O.3   293  LEU293     -0.2185
     75  CB        46.3940    9.8510   53.3400 C.3   293  LEU293      0.0244
     76  CG        45.1110   10.0080   54.1670 C.3   293  LEU293      0.0018
     77  CD1       44.6430   11.4690   54.1430 C.3   293  LEU293      0.0001
     78  CD2       44.0210    9.1220   53.6090 C.3   293  LEU293      0.0001
     79  N         51.0990   -0.7710   38.7470 N.3   316  ASN316     -0.1225
     80  CA        49.7000   -0.3620   38.5960 C.3   316  ASN316      0.1785
     81  C         49.2370    0.1580   40.0240 C.2   316  ASN316      0.2598
     82  O         49.2290   -0.6670   40.9960 O.2   316  ASN316     -0.2718
     83  CB        48.7470   -1.4370   38.1410 C.3   316  ASN316      0.1169
     84  CG        47.2850   -1.0670   38.4320 C.2   316  ASN316      0.2627
     85  OD1       46.5960   -1.8230   39.1440 O.2   316  ASN316     -0.2716
     86  ND2       46.8560    0.1020   37.9090 N.am  316  ASN316     -0.0877
     87  N         48.8550    1.4200   40.0830 N.am  317  GLY317     -0.1943
     88  CA        48.2260    2.0510   41.2710 C.3   317  GLY317      0.1998
     89  C         49.0480    2.9590   42.1380 C.2   317  GLY317      0.2481
     90  O         50.1240    2.5940   42.6400 O.2   317  GLY317     -0.2729
     91  N         48.5360    4.1840   42.3680 N.am  318  PRO318     -0.2715
     92  CA        49.2230    5.1770   43.2300 C.3   318  PRO318      0.1536
     93  C         49.4850    4.6570   44.6820 C.2   318  PRO318      0.2598
     94  O         48.6910    3.7860   45.1710 O.2   318  PRO318     -0.2715
     95  CB        48.3200    6.4030   43.1810 C.3   318  PRO318      0.0310
     96  CG        47.4590    6.2650   41.9670 C.3   318  PRO318      0.0237
     97  CD        47.2820    4.7410   41.8170 C.3   318  PRO318      0.0939
     98  N         50.5710    5.1650   45.2210 N.am  319  MET319     -0.1964
     99  CA        50.9420    4.6990   46.5920 C.3   319  MET319      0.1736
    100  C         50.1780    5.3980   47.7390 C.2   319  MET319      0.2617
    101  O         50.2760    4.9270   48.8770 O.2   319  MET319     -0.2715
    102  CB        52.4380    4.9220   46.6770 C.3   319  MET319      0.0427
    103  CG        53.3530    4.0940   45.7960 C.3   319  MET319      0.0599
    104  SD        53.3770    2.3600   46.3340 S.3   319  MET319     -0.1393
    105  CE        52.1710    1.6230   45.2280 C.3   319  MET319      0.0692
    106  N         49.4930    6.4990   47.4150 N.am  320  GLY320     -0.1940
    107  CA        48.7700    7.3090   48.4130 C.3   320  GLY320      0.2014
    108  C         47.7750    8.1730   47.6080 C.2   320  GLY320      0.2639
    109  O         47.5630    7.9980   46.3560 O.2   320  GLY320     -0.2714
    110  N         47.1280    9.0970   48.3280 N.am  321  VAL321     -0.1963
    111  CA        46.0850    9.9660   47.7160 C.3   321  VAL321      0.1727
    112  C         46.8250   11.1050   47.0100 C.2   321  VAL321      0.2616
    113  O         46.9430   12.2590   47.5060 O.2   321  VAL321     -0.2715
    114  CB        45.1480   10.4450   48.8640 C.3   321  VAL321      0.0290
    115  CG1       43.9930   11.3240   48.3800 C.3   321  VAL321      0.0023
    116  CG2       44.5340    9.2660   49.6050 C.3   321  VAL321      0.0023
    117  N         47.3880   10.8460   45.8090 N.am  322  PHE322     -0.1960
    118  CA        48.2420   11.7610   45.0590 C.3   322  PHE322      0.1771
    119  C         47.4990   13.0040   44.5010 C.2   322  PHE322      0.2619
    120  O         48.2390   13.9260   44.1340 O.2   322  PHE322     -0.2715
    121  CB        49.0380   10.9850   43.9580 C.3   322  PHE322      0.0574
    122  CG        48.1900   10.8520   42.7280 C.ar  322  PHE322     -0.0200
    123  CD1       47.1640    9.9430   42.6430 C.ar  322  PHE322     -0.0042
    124  CD2       48.4490   11.7600   41.6720 C.ar  322  PHE322     -0.0042
    125  CE1       46.3620    9.8540   41.5030 C.ar  322  PHE322     -0.0003
    126  CE2       47.6490   11.6870   40.5400 C.ar  322  PHE322     -0.0003
    127  CZ        46.6260   10.7580   40.4330 C.ar  322  PHE322     -0.0000
    128  N         46.2070   12.9400   44.5650 N.am  323  GLU323     -0.1977
    129  CA        45.3090   14.0150   44.1810 C.3   323  GLU323      0.1602
    130  C         45.5200   15.1980   45.1070 C.2   323  GLU323      0.2287
    131  O         45.2470   16.3390   44.6670 O.2   323  GLU323     -0.2864
    132  CB        43.8120   13.6930   44.1540 C.3   323  GLU323      0.0415
    133  CG        43.5610   12.6520   43.0150 C.3   323  GLU323      0.1163
    134  CD        43.4720   11.2610   43.5740 C.2   323  GLU323      0.3649
    135  OE1       44.1120   11.0240   44.6300 O.co2 323  GLU323     -0.2457
    136  OE2       42.7310   10.4450   43.0630 O.co2 323  GLU323     -0.2457
    137  N         47.0350    1.4850   34.1220 N.3   350  GLY350     -0.1210
    138  CA        46.0110    2.0760   34.9860 C.3   350  GLY350      0.1956
    139  C         45.8720    3.5900   34.7390 C.2   350  GLY350      0.2612
    140  O         46.8600    4.3440   34.5630 O.2   350  GLY350     -0.2717
    141  N         44.6050    4.0160   34.7270 N.am  351  GLY351     -0.1942
    142  CA        44.2010    5.3860   34.5040 C.3   351  GLY351      0.2014
    143  C         44.8870    6.3930   35.3810 C.2   351  GLY351      0.2639
    144  O         45.5650    7.3620   34.9670 O.2   351  GLY351     -0.2714
    145  N         44.7420    6.2210   36.6950 N.am  352  ASP352     -0.1957
    146  CA        45.3320    7.1730   37.6820 C.3   352  ASP352      0.1840
    147  C         46.8250    7.1230   37.6700 C.2   352  ASP352      0.2622
    148  O         47.4840    8.1480   37.8800 O.2   352  ASP352     -0.2715
    149  CB        44.7370    6.8500   39.0940 C.3   352  ASP352      0.1450
    150  CG        43.2460    7.1080   39.1870 C.2   352  ASP352      0.3671
    151  OD1       42.9820    8.3120   39.1760 O.co2 352  ASP352     -0.2456
    152  OD2       42.3310    6.2360   39.2130 O.co2 352  ASP352     -0.2456
    153  N         47.4040    5.9190   37.5200 N.am  353  SER353     -0.1950
    154  CA        48.8400    5.7690   37.5060 C.3   353  SER353      0.1924
    155  C         49.4550    6.5370   36.2830 C.2   353  SER353      0.2314
    156  O         50.5120    7.1940   36.5060 O.2   353  SER353     -0.2863
    157  CB        49.1870    4.2880   37.4500 C.3   353  SER353      0.2116
    158  OG        48.6150    3.5820   38.5290 O.3   353  SER353     -0.2180
    159  N         44.5770   -3.8940   32.5400 N.3   377  LEU377     -0.1245
    160  CA        44.5140   -4.7350   33.8020 C.3   377  LEU377      0.1561
    161  C         43.9740   -6.1200   33.5370 C.2   377  LEU377      0.2260
    162  O         44.5030   -7.1330   34.0430 O.2   377  LEU377     -0.2867
    163  CB        43.7370   -3.9300   34.8100 C.3   377  LEU377      0.0270
    164  CG        44.2560   -2.5380   35.1920 C.3   377  LEU377      0.0019
    165  CD1       43.7820   -2.2260   36.6200 C.3   377  LEU377      0.0001
    166  CD2       45.7800   -2.3700   35.0770 C.3   377  LEU377      0.0001
@<TRIPOS>BOND
     1   159   160    1
     2   161   160    1
     3   161   162    2
     4   160   163    1
     5   137   138    1
     6   142   141    1
     7   142   143    1
     8   140   139    2
     9   141   139   am
    10   139   138    1
    11   163   164    1
    12   144   143    2
    13   166   164    1
    14   164   165    1
    15   143   145   am
    16   155   156    2
    17   155   154    1
    18   145   146    1
    19   157   154    1
    20   157   158    1
    21   154   153    1
    22   153   147   am
    23   147   146    1
    24   147   148    2
    25   146   149    1
    26    86    84   am
    27    83    84    1
    28    83    80    1
    29    84    85    2
    30    80    79    1
    31    80    81    1
    32   149   150    1
    33   151   150   ar
    34   150   152   ar
    35    81    87   am
    36    81    82    2
    37    87    88    1
    38    26    25    1
    39    13    12    2
    40   127   126   ar
    41   127   125   ar
    42   126   124   ar
    43    88    89    1
    44    24    25    1
    45    24    23    1
    46   125   123   ar
    47    12    11    1
    48    12    18   am
    49   124   122   ar
    50    97    96    1
    51    97    91    1
    52    96    95    1
    53    19    20    1
    54    19    18    1
    55    19    22    1
    56    21    20    2
    57    89    91   am
    58    89    90    2
    59    11    14    1
    60    11    10    1
    61    14    15    1
    62    15    16   ar
    63    15    17   ar
    64    91    92    1
    65   123   122   ar
    66   122   121    1
    67    23    22    1
    68   133   134    1
    69   133   132    1
    70   136   134   ar
    71    95    92    1
    72    92    93    1
    73   134   135   ar
    74   121   118    1
    75   120   119    2
    76   132   129    1
    77   129   128    1
    78   129   130    1
    79     2     1    1
    80     2     3    1
    81   119   128   am
    82   119   118    1
    83   131   130    2
    84    93    94    2
    85    93    98   am
    86   118   117    1
    87    98    99    1
    88   105   104    1
    89     5     3   am
    90     5     6    1
    91     3     4    2
    92   103   104    1
    93   103   102    1
    94   117   112   am
    95     9     6    1
    96   109   108    2
    97    99   102    1
    98    99   100    1
    99     6     7    1
   100   112   113    2
   101   112   111    1
   102     7     8    2
   103   106   100   am
   104   106   107    1
   105   108   110   am
   106   108   107    1
   107   111   110    1
   108   111   114    1
   109   100   101    2
   110    28    27    1
   111    28    29    1
   112   115   114    1
   113   114   116    1
   114    31    29   am
   115    31    32    1
   116    29    30    2
   117    54    52    1
   118    32    33    1
   119    33    34    2
   120    64    65   ar
   121    64    62   ar
   122    65    63   ar
   123    74    73    1
   124    52    53    1
   125    52    51    1
   126    62    60   ar
   127    63    61   ar
   128    73    72    1
   129    51    48    1
   130    60    61   ar
   131    60    59    1
   132    72    75    1
   133    72    71    1
   134    75    76    1
   135    35    36    1
   136    78    76    1
   137    58    57    2
   138    44    42   ar
   139    44    45   ar
   140    48    49    1
   141    48    47    1
   142    46    45    1
   143    42    40   ar
   144    77    76    1
   145    57    56    1
   146    49    50    2
   147    45    43   ar
   148    69    68    2
   149    59    56    1
   150    71    68   am
   151    56    55    1
   152    36    37    1
   153    36    39    1
   154    40    39    1
   155    40    41   ar
   156    68    67    1
   157    37    38    2
   158    43    41   ar
   159    67    70    1
   160    67    66    1
