@<TRIPOS>MOLECULE
tmp/1phqA00.pdb
 105 99 0 0 0
SMALL
GASTEIGER

@<TRIPOS>ATOM
      1  N         10.0810   -7.5000   31.9650 N.3    60  LYS60      -0.1245
      2  CA         9.9720   -6.8260   33.2560 C.3    60  LYS60       0.1561
      3  C          9.7510   -5.3350   33.0400 C.2    60  LYS60       0.2260
      4  O         10.6620   -4.5270   33.2530 O.2    60  LYS60      -0.2867
      5  CB        11.2330   -7.0410   34.1000 C.3    60  LYS60       0.0271
      6  CG        11.3240   -8.3970   34.7990 C.3    60  LYS60       0.0035
      7  CD        10.2710   -8.5650   35.8970 C.3    60  LYS60       0.0206
      8  CE         8.8750   -8.7880   35.3270 C.3    60  LYS60       0.1093
      9  NZ         7.8500   -9.0140   36.3830 N.3    60  LYS60      -0.1314
     10  N          8.6840   -3.2790   34.6830 N.3    62  ASN62      -0.1240
     11  CA         9.0710   -2.5110   35.8550 C.3    62  ASN62       0.1653
     12  C         10.4700   -2.8860   36.3220 C.2    62  ASN62       0.2266
     13  O         10.8180   -4.0650   36.4140 O.2    62  ASN62      -0.2867
     14  CB         8.0650   -2.7120   36.9990 C.3    62  ASN62       0.1155
     15  CG         7.9410   -4.1660   37.4350 C.2    62  ASN62       0.2627
     16  OD1        7.2320   -4.4750   38.3980 O.2    62  ASN62      -0.2716
     17  ND2        8.6230   -5.0670   36.7280 N.am   62  ASN62      -0.0877
     18  N          3.1310  -13.5690   32.6360 N.3    95  ASP95      -0.1239
     19  CA         2.3970  -12.3200   32.8090 C.3    95  ASP95       0.1674
     20  C          2.4500  -11.3940   31.5990 C.2    95  ASP95       0.2266
     21  O          3.4450  -11.3730   30.8820 O.2    95  ASP95      -0.2867
     22  CB         2.9600  -11.5940   34.0320 C.3    95  ASP95       0.1410
     23  CG         4.4790  -11.4180   33.9630 C.2    95  ASP95       0.3668
     24  OD1        5.2210  -12.4320   34.0250 O.co2  95  ASP95      -0.2456
     25  OD2        4.9270  -10.2560   33.8390 O.co2  95  ASP95      -0.2456
     26  N          1.6660   -7.2880   29.9310 N.3    97  HIS97      -0.1241
     27  CA         1.6490   -5.8780   30.3150 C.3    97  HIS97       0.1621
     28  C          1.0170   -4.9700   29.2570 C.2    97  HIS97       0.2264
     29  O          0.8380   -3.7720   29.4900 O.2    97  HIS97      -0.2867
     30  CB         3.0720   -5.3830   30.5970 C.3    97  HIS97       0.0745
     31  CG         3.8310   -6.2260   31.5800 C.ar   97  HIS97       0.0817
     32  ND1        4.3720   -7.4440   31.2480 N.ar   97  HIS97      -0.2268
     33  CD2        4.1220   -6.0200   32.8870 C.ar   97  HIS97       0.1154
     34  CE1        4.9690   -7.9610   32.3130 C.ar   97  HIS97       0.1986
     35  NE2        4.8310   -7.1210   33.3150 N.ar   97  HIS97      -0.2212
     36  N         -1.4110  -14.2650   33.0280 N.3   113  GLN113     -0.1245
     37  CA        -1.4680  -13.6060   34.3330 C.3   113  GLN113      0.1566
     38  C         -1.6010  -12.0810   34.2800 C.2   113  GLN113      0.2260
     39  O         -1.1740  -11.4350   33.3210 O.2   113  GLN113     -0.2867
     40  CB        -0.2120  -13.9650   35.1360 C.3   113  GLN113      0.0367
     41  CG        -0.2810  -13.6230   36.6190 C.3   113  GLN113      0.0905
     42  CD         1.0870  -13.6590   37.2900 C.2   113  GLN113      0.2608
     43  OE1        1.9180  -12.7620   37.0830 O.2   113  GLN113     -0.2717
     44  NE2        1.3330  -14.6970   38.0870 N.am  113  GLN113     -0.0878
     45  N         -0.6150   -8.5310   36.0530 N.3   115  PRO115     -0.2102
     46  CA         0.2430   -8.0320   37.1170 C.3   115  PRO115      0.1504
     47  C         -0.5320   -7.2200   38.1610 C.2   115  PRO115      0.2576
     48  O         -1.5340   -6.5800   37.8450 O.2   115  PRO115     -0.2718
     49  CB         1.2930   -7.2340   36.3560 C.3   115  PRO115      0.0282
     50  CG         1.4190   -8.0180   35.0560 C.3   115  PRO115      0.0208
     51  CD        -0.0410   -8.2460   34.7260 C.3   115  PRO115      0.0893
     52  N         -0.0850   -7.2600   39.4120 N.am  116  ALA116     -0.1966
     53  CA        -0.7740   -6.5320   40.4650 C.3   116  ALA116      0.1728
     54  C         -0.9780   -5.0700   40.0870 C.2   116  ALA116      0.2616
     55  O         -2.1020   -4.5820   39.9840 O.2   116  ALA116     -0.2715
     56  CB         0.0130   -6.6260   41.7590 C.3   116  ALA116      0.0334
     57  N          0.1250   -4.3750   39.8760 N.am  117  PHE117     -0.1974
     58  CA         0.0760   -2.9680   39.5430 C.3   117  PHE117      0.1639
     59  C         -0.9440   -2.5880   38.4630 C.2   117  PHE117      0.2290
     60  O         -1.2770   -1.4080   38.3000 O.2   117  PHE117     -0.2864
     61  CB         1.4770   -2.5170   39.1380 C.3   117  PHE117      0.0560
     62  CG         2.5340   -2.8480   40.1580 C.ar  117  PHE117     -0.0200
     63  CD1        2.3460   -2.5200   41.4970 C.ar  117  PHE117     -0.0042
     64  CD2        3.7250   -3.4640   39.7790 C.ar  117  PHE117     -0.0042
     65  CE1        3.3230   -2.7950   42.4400 C.ar  117  PHE117     -0.0003
     66  CE2        4.7150   -3.7450   40.7180 C.ar  117  PHE117     -0.0003
     67  CZ         4.5120   -3.4090   42.0520 C.ar  117  PHE117     -0.0000
     68  N         -2.9580  -11.1620   40.4290 N.3   138  LYS138     -0.1245
     69  CA        -2.0680  -10.9900   41.5670 C.3   138  LYS138      0.1561
     70  C         -2.7230   -9.8830   42.3510 C.2   138  LYS138      0.2260
     71  O         -3.1110   -8.8790   41.7660 O.2   138  LYS138     -0.2867
     72  CB        -0.6760  -10.5600   41.1090 C.3   138  LYS138      0.0271
     73  CG        -0.0570  -11.5000   40.0780 C.3   138  LYS138      0.0035
     74  CD         0.0110  -12.9330   40.5940 C.3   138  LYS138      0.0206
     75  CE         1.1080  -13.1030   41.6270 C.3   138  LYS138      0.1093
     76  NZ         2.4460  -12.9830   40.9860 N.3   138  LYS138     -0.1314
     77  N         -0.0580  -11.7810   47.7640 N.3   168  ARG168     -0.1245
     78  CA         1.3370  -11.4180   48.0140 C.3   168  ARG168      0.1563
     79  C          1.5140  -10.4450   49.1830 C.2   168  ARG168      0.2260
     80  O          2.2740   -9.4780   49.0920 O.2   168  ARG168     -0.2867
     81  CB         1.9790  -10.8310   46.7390 C.3   168  ARG168      0.0307
     82  CG         1.2440   -9.6600   46.1130 C.3   168  ARG168      0.0489
     83  CD         1.5760   -8.3340   46.7630 C.3   168  ARG168      0.2205
     84  NE         2.7980   -7.7040   46.2590 N.pl3 168  ARG168     -0.0865
     85  CZ         4.0330   -7.9990   46.6570 C.cat 168  ARG168      0.5346
     86  NH1        4.2380   -8.9320   47.5770 N.pl3 168  ARG168      0.1354
     87  NH2        5.0660   -7.3560   46.1280 N.pl3 168  ARG168      0.1354
     88  N          1.4780  -16.3110   46.8180 N.3   199  ASP199     -0.1239
     89  CA         2.7430  -16.0760   46.1310 C.3   199  ASP199      0.1674
     90  C          3.7560  -15.7750   47.2300 C.2   199  ASP199      0.2266
     91  O          4.0440  -14.6090   47.5330 O.2   199  ASP199     -0.2867
     92  CB         2.6810  -14.8890   45.1840 C.3   199  ASP199      0.1410
     93  CG         4.0310  -14.6140   44.5410 C.2   199  ASP199      0.3668
     94  OD1        5.0030  -15.3220   44.8930 O.co2 199  ASP199     -0.2456
     95  OD2        4.1480  -13.7020   43.6960 O.co2 199  ASP199     -0.2456
     96  N          7.2020  -13.8950   46.7980 N.3   202  HIS202     -0.1241
     97  CA         6.8980  -12.4920   46.5590 C.3   202  HIS202      0.1621
     98  C          6.3680  -11.7970   47.7860 C.2   202  HIS202      0.2264
     99  O          6.4330  -10.5840   47.8320 O.2   202  HIS202     -0.2867
    100  CB         5.9150  -12.3050   45.4080 C.3   202  HIS202      0.0745
    101  CG         6.4790  -11.5380   44.2400 C.ar  202  HIS202      0.0817
    102  ND1        6.2170  -11.9190   42.9470 N.ar  202  HIS202     -0.2268
    103  CD2        7.2900  -10.4530   44.1510 C.ar  202  HIS202      0.1154
    104  CE1        6.8390  -11.1230   42.0960 C.ar  202  HIS202      0.1986
    105  NE2        7.4970  -10.2130   42.8060 N.ar  202  HIS202     -0.2212
@<TRIPOS>BOND
     1    28    29    2
     2    28    27    1
     3    26    27    1
     4    27    30    1
     5    30    31    1
     6    21    20    2
     7    32    31   ar
     8    32    34   ar
     9    31    33   ar
    10    20    19    1
    11     1     2    1
    12    34    35   ar
    13    18    19    1
    14    19    22    1
    15    33    35   ar
    16    36    37    1
    17     3     4    2
    18     3     2    1
    19     2     5    1
    20    39    38    2
    21    25    23   ar
    22    23    24   ar
    23    23    22    1
    24     5     6    1
    25    38    37    1
    26    37    40    1
    27    10    11    1
    28    51    50    1
    29    51    45    1
    30     6     7    1
    31    50    49    1
    32    40    41    1
    33     8     7    1
    34     8     9    1
    35    11    12    1
    36    11    14    1
    37    45    46    1
    38    12    13    2
    39    49    46    1
    40    41    42    1
    41    17    15   am
    42    14    15    1
    43    43    42    2
    44    46    47    1
    45    42    44   am
    46    15    16    2
    47    48    47    2
    48    47    52   am
    49    60    59    2
    50    59    58    1
    51    61    58    1
    52    61    62    1
    53    52    53    1
    54    58    57    1
    55    64    62   ar
    56    64    66   ar
    57    57    54   am
    58    55    54    2
    59    73    74    1
    60    73    72    1
    61    54    53    1
    62    62    63   ar
    63    68    69    1
    64    53    56    1
    65    74    75    1
    66    66    67   ar
    67    76    75    1
    68    72    69    1
    69    63    65   ar
    70    69    70    1
    71    71    70    2
    72    67    65   ar
    73   104   105   ar
    74   104   102   ar
    75   105   103   ar
    76   102   101   ar
    77    95    93   ar
    78   103   101   ar
    79   101   100    1
    80    93    94   ar
    81    93    92    1
    82    92    89    1
    83   100    97    1
    84    82    81    1
    85    82    83    1
    86    87    85    1
    87    89    88    1
    88    89    90    1
    89    84    85    2
    90    84    83    1
    91    97    96    1
    92    97    98    1
    93    85    86    1
    94    81    78    1
    95    90    91    2
    96    77    78    1
    97    98    99    2
    98    78    79    1
    99    80    79    2
