@<TRIPOS>MOLECULE
tmp/1phwA00.pdb
 98 93 0 0 0
SMALL
GASTEIGER

@<TRIPOS>ATOM
      1  N          8.8250   -2.9410   34.9720 N.3    62  ASN62      -0.1240
      2  CA         9.2420   -2.0280   36.0290 C.3    62  ASN62       0.1653
      3  C         10.6010   -2.3450   36.6370 C.2    62  ASN62       0.2266
      4  O         10.7170   -2.6720   37.8220 O.2    62  ASN62      -0.2867
      5  CB         8.1770   -1.9160   37.1410 C.3    62  ASN62       0.1155
      6  CG         7.4070   -3.2030   37.3720 C.2    62  ASN62       0.2627
      7  OD1        6.6930   -3.3250   38.3620 O.2    62  ASN62      -0.2716
      8  ND2        7.5320   -4.1570   36.4610 N.am   62  ASN62      -0.0877
      9  N          3.1170  -13.4050   32.7090 N.3    95  ASP95      -0.1239
     10  CA         2.4420  -12.1320   32.8980 C.3    95  ASP95       0.1674
     11  C          2.5180  -11.2230   31.6870 C.2    95  ASP95       0.2266
     12  O          3.5770  -11.0930   31.0790 O.2    95  ASP95      -0.2867
     13  CB         3.0720  -11.4160   34.0870 C.3    95  ASP95       0.1410
     14  CG         4.5890  -11.2940   33.9560 C.2    95  ASP95       0.3668
     15  OD1        5.2740  -12.3340   33.9130 O.co2  95  ASP95      -0.2456
     16  OD2        5.1020  -10.1590   33.8930 O.co2  95  ASP95      -0.2456
     17  N         -1.4540  -14.1170   33.3040 N.3   113  GLN113     -0.1245
     18  CA        -1.3990  -13.4890   34.6180 C.3   113  GLN113      0.1566
     19  C         -1.4920  -11.9690   34.6020 C.2   113  GLN113      0.2260
     20  O         -0.8590  -11.3010   33.7850 O.2   113  GLN113     -0.2867
     21  CB        -0.1070  -13.8960   35.3210 C.3   113  GLN113      0.0367
     22  CG        -0.0720  -13.5340   36.7800 C.3   113  GLN113      0.0905
     23  CD         1.2330  -13.9050   37.4320 C.2   113  GLN113      0.2608
     24  OE1        2.1800  -13.1200   37.4340 O.2   113  GLN113     -0.2717
     25  NE2        1.2980  -15.1120   37.9820 N.am  113  GLN113     -0.0878
     26  N         -0.7550   -8.4530   36.4960 N.3   115  PRO115     -0.2102
     27  CA         0.0630   -7.8310   37.5390 C.3   115  PRO115      0.1504
     28  C         -0.7640   -6.9400   38.4730 C.2   115  PRO115      0.2576
     29  O         -1.7040   -6.2720   38.0430 O.2   115  PRO115     -0.2718
     30  CB         1.0740   -7.0070   36.7430 C.3   115  PRO115      0.0282
     31  CG         1.1600   -7.7070   35.4240 C.3   115  PRO115      0.0208
     32  CD        -0.2770   -8.0580   35.1560 C.3   115  PRO115      0.0893
     33  N         -0.4000   -6.9200   39.7480 N.am  116  ALA116     -0.1966
     34  CA        -1.0870   -6.0960   40.7220 C.3   116  ALA116      0.1728
     35  C         -1.0720   -4.6290   40.3000 C.2   116  ALA116      0.2616
     36  O         -2.1180   -3.9970   40.2240 O.2   116  ALA116     -0.2715
     37  CB        -0.4230   -6.2600   42.0890 C.3   116  ALA116      0.0334
     38  N          0.1130   -4.0860   40.0370 N.am  117  PHE117     -0.1974
     39  CA         0.2500   -2.6840   39.6360 C.3   117  PHE117      0.1639
     40  C         -0.8150   -2.2650   38.6210 C.2   117  PHE117      0.2290
     41  O         -1.2510   -1.1170   38.5960 O.2   117  PHE117     -0.2864
     42  CB         1.6380   -2.4370   39.0240 C.3   117  PHE117      0.0560
     43  CG         2.7870   -2.7440   39.9490 C.ar  117  PHE117     -0.0200
     44  CD1        2.9300   -2.0730   41.1640 C.ar  117  PHE117     -0.0042
     45  CD2        3.7510   -3.6830   39.5850 C.ar  117  PHE117     -0.0042
     46  CE1        4.0220   -2.3330   42.0020 C.ar  117  PHE117     -0.0003
     47  CE2        4.8450   -3.9480   40.4160 C.ar  117  PHE117     -0.0003
     48  CZ         4.9800   -3.2730   41.6230 C.ar  117  PHE117     -0.0000
     49  N         -3.1840  -10.9620   40.5340 N.3   138  LYS138     -0.1245
     50  CA        -2.2770  -10.7510   41.6520 C.3   138  LYS138      0.1561
     51  C         -2.8750   -9.7070   42.5560 C.2   138  LYS138      0.2260
     52  O         -3.0590   -8.5790   42.1260 O.2   138  LYS138     -0.2867
     53  CB        -0.9260  -10.2670   41.1470 C.3   138  LYS138      0.0271
     54  CG        -0.1310  -11.3730   40.5120 C.3   138  LYS138      0.0035
     55  CD         0.0720  -12.5150   41.4860 C.3   138  LYS138      0.0206
     56  CE         1.4240  -12.4870   42.1510 C.3   138  LYS138      0.1093
     57  NZ         2.5120  -12.5780   41.1630 N.3   138  LYS138     -0.1314
     58  N         -0.8500   -5.0220   46.8550 N.3   141  GLN141     -0.1245
     59  CA        -0.4800   -4.8800   48.2580 C.3   141  GLN141      0.1566
     60  C         -1.2630   -3.7520   48.9240 C.2   141  GLN141      0.2260
     61  O         -1.4470   -3.7440   50.1410 O.2   141  GLN141     -0.2867
     62  CB         1.0390   -4.6470   48.3800 C.3   141  GLN141      0.0367
     63  CG         1.5220   -3.3130   47.8530 C.3   141  GLN141      0.0905
     64  CD         3.0370   -3.2400   47.7000 C.2   141  GLN141      0.2608
     65  OE1        3.6080   -3.8430   46.7920 O.2   141  GLN141     -0.2717
     66  NE2        3.6910   -2.4980   48.5810 N.am  141  GLN141     -0.0878
     67  N         -0.0550  -11.8330   47.8080 N.3   168  ARG168     -0.1245
     68  CA         1.3670  -11.6400   48.0940 C.3   168  ARG168      0.1563
     69  C          1.6550  -10.6400   49.2430 C.2   168  ARG168      0.2260
     70  O          2.6430   -9.9000   49.2050 O.2   168  ARG168     -0.2867
     71  CB         2.1430  -11.2370   46.8190 C.3   168  ARG168      0.0307
     72  CG         1.5010  -10.1800   45.9230 C.3   168  ARG168      0.0489
     73  CD         1.3420   -8.8260   46.6280 C.3   168  ARG168      0.2205
     74  NE         2.3440   -7.8010   46.3030 N.pl3 168  ARG168     -0.0865
     75  CZ         3.6390   -7.8440   46.6270 C.cat 168  ARG168      0.5346
     76  NH1        4.1360   -8.8770   47.2880 N.pl3 168  ARG168      0.1354
     77  NH2        4.4370   -6.8260   46.3140 N.pl3 168  ARG168      0.1354
     78  N          7.1880  -13.7420   46.7200 N.3   202  HIS202     -0.1241
     79  CA         6.9360  -12.3210   46.4610 C.3   202  HIS202      0.1621
     80  C          6.3680  -11.5710   47.6840 C.2   202  HIS202      0.2264
     81  O          6.3660  -10.3370   47.6940 O.2   202  HIS202     -0.2867
     82  CB         6.0160  -12.1520   45.2340 C.3   202  HIS202      0.0745
     83  CG         6.6780  -12.5090   43.9290 C.ar  202  HIS202      0.0817
     84  ND1        5.9850  -12.8810   42.7900 N.ar  202  HIS202     -0.2268
     85  CD2        7.9840  -12.5040   43.5760 C.ar  202  HIS202      0.1154
     86  CE1        6.8360  -13.0920   41.8020 C.ar  202  HIS202      0.1986
     87  NE2        8.0590  -12.8680   42.2550 N.ar  202  HIS202     -0.2212
     88  N         13.1620   -7.4470   44.4020 N.3   239  GLY239     -0.1210
     89  CA        11.8060   -7.6650   43.9440 C.3   239  GLY239      0.1940
     90  C         11.3020   -8.7930   44.8280 C.2   239  GLY239      0.2453
     91  O         10.6800   -8.5510   45.8650 O.2   239  GLY239     -0.2732
     92  N         11.5630  -10.0470   44.4350 N.am  240  PRO240     -0.2728
     93  CA        11.1710  -11.2610   45.1580 C.3   240  PRO240      0.1401
     94  C         12.3610  -11.7940   45.9560 C.2   240  PRO240      0.2269
     95  O         13.3730  -11.1120   46.1280 O.2   240  PRO240     -0.2865
     96  CB        10.8250  -12.2430   44.0390 C.3   240  PRO240      0.0296
     97  CG        10.7800  -11.3920   42.7750 C.3   240  PRO240      0.0237
     98  CD        11.8320  -10.3740   43.0290 C.3   240  PRO240      0.0939
@<TRIPOS>BOND
     1    12    11    2
     2    11    10    1
     3     9    10    1
     4    10    13    1
     5    17    18    1
     6    20    19    2
     7    16    14   ar
     8    15    14   ar
     9    14    13    1
    10    19    18    1
    11    18    21    1
    12     1     2    1
    13    32    31    1
    14    32    26    1
    15    21    22    1
    16    31    30    1
    17     2     3    1
    18     2     5    1
    19     8     6   am
    20    26    27    1
    21     3     4    2
    22    30    27    1
    23    22    23    1
    24     5     6    1
    25     6     7    2
    26    23    24    2
    27    23    25   am
    28    27    28    1
    29    29    28    2
    30    28    33   am
    31    41    40    2
    32    40    39    1
    33    42    39    1
    34    42    43    1
    35    45    43   ar
    36    45    47   ar
    37    39    38    1
    38    33    34    1
    39    43    44   ar
    40    38    35   am
    41    36    35    2
    42    35    34    1
    43    47    48   ar
    44    54    53    1
    45    54    55    1
    46    49    50    1
    47    34    37    1
    48    53    50    1
    49    57    56    1
    50    44    46   ar
    51    55    56    1
    52    48    46   ar
    53    50    51    1
    54    86    87   ar
    55    86    84   ar
    56    52    51    2
    57    87    85   ar
    58    97    98    1
    59    97    96    1
    60    84    83   ar
    61    98    92    1
    62    85    83   ar
    63    83    82    1
    64    89    88    1
    65    89    90    1
    66    96    93    1
    67    92    90   am
    68    92    93    1
    69    90    91    2
    70    93    94    1
    71    82    79    1
    72    72    73    1
    73    72    71    1
    74    94    95    2
    75    74    75    2
    76    74    73    1
    77    77    75    1
    78    79    78    1
    79    79    80    1
    80    75    76    1
    81    65    64    2
    82    71    68    1
    83    58    59    1
    84    80    81    2
    85    64    63    1
    86    64    66   am
    87    67    68    1
    88    63    62    1
    89    68    69    1
    90    59    62    1
    91    59    60    1
    92    60    61    2
    93    70    69    2
