@<TRIPOS>MOLECULE
tmp/1pi5A00.pdb
 84 78 0 0 0
SMALL
GASTEIGER

@<TRIPOS>ATOM
      1  N         27.3130    1.4850   16.0440 N.3    61  SER61      -0.1217
      2  CA        28.6570    1.9080   16.3980 C.3    61  SER61       0.1889
      3  C         29.5040    0.9640   17.2210 C.2    61  SER61       0.2288
      4  O         30.6970    1.2130   17.3770 O.2    61  SER61      -0.2866
      5  CB        28.6600    3.3180   16.9670 C.3    61  SER61       0.2089
      6  OG        28.2210    4.1820   15.9280 O.3    61  SER61      -0.2183
      7  N         32.6190   -0.0600   15.6250 N.3    64  LYS64      -0.1245
      8  CA        33.8860    0.6480   15.7130 C.3    64  LYS64       0.1561
      9  C         34.9300   -0.0730   16.5280 C.2    64  LYS64       0.2260
     10  O         36.1300    0.1590   16.3300 O.2    64  LYS64      -0.2867
     11  CB        33.6800    2.0540   16.2550 C.3    64  LYS64       0.0271
     12  CG        32.8650    2.9290   15.3290 C.3    64  LYS64       0.0035
     13  CD        32.5710    4.2670   15.9880 C.3    64  LYS64       0.0206
     14  CE        31.8870    5.2800   15.0360 C.3    64  LYS64       0.1093
     15  NZ        30.4910    4.8870   14.6240 N.3    64  LYS64      -0.1314
     16  N         30.0170   14.2890   12.1800 N.3   116  LEU116     -0.1231
     17  CA        29.4210   13.1130   12.7850 C.3   116  LEU116      0.1693
     18  C         28.9960   12.0510   11.7690 C.2   116  LEU116      0.2591
     19  O         29.1810   10.8630   12.0090 O.2   116  LEU116     -0.2718
     20  CB        28.2200   13.5330   13.6410 C.3   116  LEU116      0.0284
     21  CG        27.4850   12.3980   14.3440 C.3   116  LEU116      0.0019
     22  CD1       28.4340   11.6760   15.3170 C.3   116  LEU116      0.0001
     23  CD2       26.2710   12.9680   15.0650 C.3   116  LEU116      0.0001
     24  N         28.4290   12.4890   10.6430 N.am  117  GLN117     -0.1979
     25  CA        27.9490   11.6190    9.5750 C.3   117  GLN117      0.1601
     26  C         28.4710   11.9640    8.2140 C.2   117  GLN117      0.2287
     27  O         28.7330   13.1350    7.8970 O.2   117  GLN117     -0.2864
     28  CB        26.4160   11.7090    9.4740 C.3   117  GLN117      0.0394
     29  CG        25.6950   11.2560   10.7390 C.3   117  GLN117      0.0908
     30  CD        24.7540   12.3100   11.3120 C.2   117  GLN117      0.2608
     31  OE1       25.0640   13.5130   11.3210 O.2   117  GLN117     -0.2717
     32  NE2       23.6100   11.8620   11.8140 N.am  117  GLN117     -0.0878
     33  N         33.2540   13.0730   18.3890 N.3   147  TYR147     -0.1241
     34  CA        32.8970   11.7310   17.9320 C.3   147  TYR147      0.1605
     35  C         32.3580   11.8200   16.4990 C.2   147  TYR147      0.2264
     36  O         31.5050   12.6690   16.1920 O.2   147  TYR147     -0.2867
     37  CB        31.8640   11.1580   18.8900 C.3   147  TYR147      0.0534
     38  CG        31.4160    9.7790   18.5380 C.ar  147  TYR147     -0.0201
     39  CD1       30.1640    9.5630   17.9700 C.ar  147  TYR147     -0.0009
     40  CD2       32.2270    8.6750   18.8080 C.ar  147  TYR147     -0.0009
     41  CE1       29.7230    8.2670   17.6800 C.ar  147  TYR147      0.0417
     42  CE2       31.7880    7.3830   18.5130 C.ar  147  TYR147      0.0417
     43  CZ        30.5410    7.2040   17.9580 C.ar  147  TYR147      0.1957
     44  OH        30.0800    5.9380   17.7030 O.3   147  TYR147     -0.2866
     45  N         31.5770    9.3960   12.6350 N.3   149  ASN149     -0.1240
     46  CA        31.6730    8.2420   11.7400 C.3   149  ASN149      0.1653
     47  C         32.6830    8.5200   10.6270 C.2   149  ASN149      0.2266
     48  O         33.3800    7.6120   10.1560 O.2   149  ASN149     -0.2867
     49  CB        30.3510    7.9790   11.0180 C.3   149  ASN149      0.1155
     50  CG        29.3080    7.3760   11.8930 C.2   149  ASN149      0.2627
     51  OD1       29.5900    6.8700   12.9750 O.2   149  ASN149     -0.2716
     52  ND2       28.0770    7.4000   11.4110 N.am  149  ASN149     -0.0877
     53  N         29.6620    1.4700   11.2380 N.3   218  TYR218     -0.1241
     54  CA        28.4780    1.0050   11.9410 C.3   218  TYR218      0.1605
     55  C         27.7980   -0.1880   11.3220 C.2   218  TYR218      0.2264
     56  O         26.6370   -0.4660   11.6600 O.2   218  TYR218     -0.2867
     57  CB        27.4420    2.1460   12.0020 C.3   218  TYR218      0.0534
     58  CG        27.0460    2.7610   10.6530 C.ar  218  TYR218     -0.0201
     59  CD1       26.0900    2.1650    9.8310 C.ar  218  TYR218     -0.0009
     60  CD2       27.6360    3.9410   10.2160 C.ar  218  TYR218     -0.0009
     61  CE1       25.7270    2.7360    8.5960 C.ar  218  TYR218      0.0417
     62  CE2       27.2880    4.5220    8.9960 C.ar  218  TYR218      0.0417
     63  CZ        26.3410    3.9250    8.1950 C.ar  218  TYR218      0.1957
     64  OH        25.9670    4.5190    7.0030 O.3   218  TYR218     -0.2866
     65  N         24.2170    2.2690   17.8910 N.3   315  ALA315     -0.1231
     66  CA        22.8480    2.3500   17.4360 C.3   315  ALA315      0.1694
     67  C         22.7470    2.4310   15.9250 C.2   315  ALA315      0.2592
     68  O         23.7040    2.7920   15.2410 O.2   315  ALA315     -0.2718
     69  CB        22.1740    3.5800   18.0270 C.3   315  ALA315      0.0304
     70  N         21.5950    1.9940   15.4240 N.am  316  THR316     -0.1953
     71  CA        21.2030    2.1970   14.0370 C.3   316  THR316      0.1897
     72  C         19.7770    2.7260   14.2020 C.2   316  THR316      0.2313
     73  O         19.2820    2.8790   15.3230 O.2   316  THR316     -0.2863
     74  CB        21.1930    0.9360   13.1530 C.3   316  THR316      0.1794
     75  OG1       20.3080   -0.0400   13.7230 O.3   316  THR316     -0.2208
     76  CG2       22.6070    0.3530   13.0040 C.3   316  THR316      0.0378
     77  N         16.2560    1.3950   19.2680 N.3   340  ASN340     -0.1240
     78  CA        17.3100    2.3330   19.6690 C.3   340  ASN340      0.1653
     79  C         16.8390    3.2050   20.8450 C.2   340  ASN340      0.2266
     80  O         16.3870    4.3510   20.6500 O.2   340  ASN340     -0.2867
     81  CB        17.7040    3.2220   18.4870 C.3   340  ASN340      0.1155
     82  CG        18.7000    4.3100   18.8730 C.2   340  ASN340      0.2627
     83  OD1       19.3580    4.2410   19.9070 O.2   340  ASN340     -0.2716
     84  ND2       18.8120    5.3120   18.0260 N.am  340  ASN340     -0.0877
@<TRIPOS>BOND
     1    64    63    1
     2    27    26    2
     3    63    61   ar
     4    63    62   ar
     5    26    25    1
     6    61    59   ar
     7    62    60   ar
     8    28    25    1
     9    28    29    1
    10    25    24    1
    11    59    58   ar
    12    48    47    2
    13    60    58   ar
    14    47    46    1
    15    24    18   am
    16    58    57    1
    17    29    30    1
    18    49    46    1
    19    49    50    1
    20    53    54    1
    21    30    31    2
    22    30    32   am
    23    55    56    2
    24    55    54    1
    25    52    50   am
    26    46    45    1
    27    18    19    2
    28    18    17    1
    29    50    51    2
    30    54    57    1
    31    16    17    1
    32    17    20    1
    33    76    74    1
    34    74    75    1
    35    74    71    1
    36    20    21    1
    37    71    72    1
    38    71    70    1
    39    72    73    2
    40    21    23    1
    41    21    22    1
    42    15    14    1
    43    14    13    1
    44    68    67    2
    45    12    13    1
    46    12    11    1
    47    70    67   am
    48     7     8    1
    49     8    11    1
    50     8     9    1
    51    67    66    1
    52     6     5    1
    53     1     2    1
    54    36    35    2
    55    10     9    2
    56     2     5    1
    57     2     3    1
    58    35    34    1
    59     3     4    2
    60    66    65    1
    61    66    69    1
    62    41    43   ar
    63    41    39   ar
    64    44    43    1
    65    34    33    1
    66    34    37    1
    67    43    42   ar
    68    39    38   ar
    69    84    82   am
    70    81    82    1
    71    81    78    1
    72    42    40   ar
    73    38    40   ar
    74    38    37    1
    75    82    83    2
    76    77    78    1
    77    78    79    1
    78    80    79    2
