@<TRIPOS>MOLECULE
tmp/1pi5B01.pdb
 103 95 0 0 0
SMALL
GASTEIGER

@<TRIPOS>ATOM
      1  N         77.7840    1.0710   29.5000 N.3    61  SER61      -0.1217
      2  CA        76.4760    1.5110   29.0200 C.3    61  SER61       0.1889
      3  C         75.5450    0.4830   28.4170 C.2    61  SER61       0.2288
      4  O         74.3770    0.8030   28.1840 O.2    61  SER61      -0.2866
      5  CB        76.6070    2.7240   28.1330 C.3    61  SER61       0.2089
      6  OG        77.1100    3.7790   28.9440 O.3    61  SER61      -0.2183
      7  N         72.3160    0.0520   30.1520 N.3    64  LYS64      -0.1245
      8  CA        71.1180    0.8570   29.9060 C.3    64  LYS64       0.1561
      9  C         70.0320    0.0310   29.2420 C.2    64  LYS64       0.2260
     10  O         68.8580    0.3950   29.3550 O.2    64  LYS64      -0.2867
     11  CB        71.4630    2.0780   29.0410 C.3    64  LYS64       0.0271
     12  CG        72.3530    3.0940   29.7870 C.3    64  LYS64       0.0035
     13  CD        72.7510    4.2410   28.8460 C.3    64  LYS64       0.0206
     14  CE        73.4610    5.3950   29.5720 C.3    64  LYS64       0.1093
     15  NZ        74.8330    4.9830   30.0510 N.3    64  LYS64      -0.1314
     16  N         75.8380   14.5160   30.4500 N.3   116  LEU116     -0.1231
     17  CA        76.4020   13.2150   30.1140 C.3   116  LEU116      0.1693
     18  C         76.7790   12.4650   31.3870 C.2   116  LEU116      0.2591
     19  O         76.4450   11.2950   31.5510 O.2   116  LEU116     -0.2718
     20  CB        77.6230   13.4270   29.2230 C.3   116  LEU116      0.0284
     21  CG        78.3700   12.1620   28.8150 C.3   116  LEU116      0.0019
     22  CD1       77.4320   11.1430   28.1630 C.3   116  LEU116      0.0001
     23  CD2       79.4930   12.5590   27.8190 C.3   116  LEU116      0.0001
     24  N         77.4950   13.1410   32.2910 N.am  117  GLN117     -0.1979
     25  CA        77.8690   12.5410   33.5730 C.3   117  GLN117      0.1601
     26  C         77.2920   13.3150   34.7340 C.2   117  GLN117      0.2287
     27  O         77.1660   14.5430   34.6830 O.2   117  GLN117     -0.2864
     28  CB        79.3870   12.5570   33.7690 C.3   117  GLN117      0.0394
     29  CG        80.1730   11.8800   32.6580 C.3   117  GLN117      0.0908
     30  CD        79.9920   10.3890   32.6430 C.2   117  GLN117      0.2608
     31  OE1       79.5290    9.8000   33.6090 O.2   117  GLN117     -0.2717
     32  NE2       80.3810    9.7530   31.5360 N.am  117  GLN117     -0.0878
     33  N         72.5280   12.2860   24.7610 N.3   147  TYR147     -0.1241
     34  CA        72.8170   11.0490   25.4930 C.3   147  TYR147      0.1605
     35  C         73.3980   11.3980   26.8490 C.2   147  TYR147      0.2264
     36  O         74.3280   12.2000   26.9460 O.2   147  TYR147     -0.2867
     37  CB        73.7950   10.2200   24.6610 C.3   147  TYR147      0.0534
     38  CG        74.1690    8.9020   25.2760 C.ar  147  TYR147     -0.0201
     39  CD1       75.3350    8.7840   26.0130 C.ar  147  TYR147     -0.0009
     40  CD2       73.3700    7.7770   25.0780 C.ar  147  TYR147     -0.0009
     41  CE1       75.7230    7.5440   26.5480 C.ar  147  TYR147      0.0417
     42  CE2       73.7380    6.5530   25.6000 C.ar  147  TYR147      0.0417
     43  CZ        74.9220    6.4470   26.3300 C.ar  147  TYR147      0.1957
     44  OH        75.3060    5.2310   26.8380 O.3   147  TYR147     -0.2866
     45  N         74.0270    9.8380   31.1420 N.3   149  ASN149     -0.1240
     46  CA        73.8800    8.9150   32.2800 C.3   149  ASN149      0.1653
     47  C         72.9230    9.5150   33.3080 C.2   149  ASN149      0.2266
     48  O         72.1710    8.7860   33.9750 O.2   149  ASN149     -0.2867
     49  CB        75.2280    8.7250   33.0030 C.3   149  ASN149      0.1155
     50  CG        76.1740    7.8510   32.2530 C.2   149  ASN149      0.2627
     51  OD1       75.7730    7.0950   31.3730 O.2   149  ASN149     -0.2716
     52  ND2       77.4550    7.9220   32.6060 N.am  149  ASN149     -0.0877
     53  N         85.5450   -0.6660   37.6250 N.3   208  VAL208     -0.1245
     54  CA        84.7610    0.5610   37.6790 C.3   208  VAL208      0.1561
     55  C         84.6270    1.0680   39.1350 C.2   208  VAL208      0.2260
     56  O         84.4950    0.2820   40.0780 O.2   208  VAL208     -0.2867
     57  CB        83.3770    0.3060   37.0340 C.3   208  VAL208      0.0252
     58  CG1       82.5690   -0.6790   37.8610 C.3   208  VAL208      0.0019
     59  CG2       82.6340    1.6450   36.8440 C.3   208  VAL208      0.0019
     60  N         75.3800    2.2870   34.1510 N.3   218  TYR218     -0.1241
     61  CA        76.5150    1.5680   33.5960 C.3   218  TYR218      0.1605
     62  C         77.0700    0.5050   34.5150 C.2   218  TYR218      0.2264
     63  O         78.2390    0.1250   34.3430 O.2   218  TYR218     -0.2867
     64  CB        77.6520    2.5710   33.2670 C.3   218  TYR218      0.0534
     65  CG        78.0960    3.4800   34.4200 C.ar  218  TYR218     -0.0201
     66  CD1       78.9730    3.0320   35.3990 C.ar  218  TYR218     -0.0009
     67  CD2       77.6360    4.7970   34.4960 C.ar  218  TYR218     -0.0009
     68  CE1       79.3910    3.8760   36.4230 C.ar  218  TYR218      0.0417
     69  CE2       78.0410    5.6600   35.5440 C.ar  218  TYR218      0.0417
     70  CZ        78.9240    5.1720   36.4970 C.ar  218  TYR218      0.1957
     71  OH        79.3130    6.0080   37.5510 O.3   218  TYR218     -0.2866
     72  N         77.5350   11.5000   21.1290 N.3   290  LEU290     -0.1245
     73  CA        77.3780   12.2570   22.3740 C.3   290  LEU290      0.1561
     74  C         76.9180   13.6940   22.1370 C.2   290  LEU290      0.2260
     75  O         76.8240   14.4760   23.0820 O.2   290  LEU290     -0.2867
     76  CB        78.7050   12.2750   23.1560 C.3   290  LEU290      0.0270
     77  CG        79.2430   10.8970   23.4980 C.3   290  LEU290      0.0019
     78  CD1       80.5110   11.0700   24.3640 C.3   290  LEU290      0.0001
     79  CD2       78.1650   10.0700   24.2340 C.3   290  LEU290      0.0001
     80  N         80.8950    1.1260   27.6580 N.3   315  ALA315     -0.1231
     81  CA        82.2790    1.1760   28.1130 C.3   315  ALA315      0.1694
     82  C         82.3770    1.5840   29.5440 C.2   315  ALA315      0.2593
     83  O         81.4670    2.2070   30.0960 O.2   315  ALA315     -0.2718
     84  CB        83.0720    2.1930   27.2940 C.3   315  ALA315      0.0304
     85  N         83.4890    1.1710   30.1470 N.am  316  THR316     -0.1939
     86  CA        83.8780    1.7020   31.4640 C.3   316  THR316      0.2028
     87  C         85.3580    2.0640   31.2280 C.2   316  THR316      0.2642
     88  O         85.8640    1.9650   30.0960 O.2   316  THR316     -0.2714
     89  CB        83.7630    0.7150   32.6350 C.3   316  THR316      0.1808
     90  OG1       84.5850   -0.4290   32.3720 O.3   316  THR316     -0.2208
     91  CG2       82.3190    0.3160   32.8580 C.3   316  THR316      0.0379
     92  N         86.0770    2.4750   32.2680 N.am  317  GLY317     -0.1954
     93  CA        87.4560    2.8590   32.0380 C.3   317  GLY317      0.1869
     94  C         88.3020    1.7280   31.4900 C.2   317  GLY317      0.2309
     95  O         89.2310    1.9780   30.7130 O.2   317  GLY317     -0.2863
     96  N         88.8570   -0.6530   26.7750 N.3   340  ASN340     -0.1240
     97  CA        87.9080    0.2750   26.1340 C.3   340  ASN340      0.1653
     98  C         88.5520    0.7640   24.8260 C.2   340  ASN340      0.2266
     99  O         89.3880    1.6560   24.8460 O.2   340  ASN340     -0.2867
    100  CB        87.6530    1.4570   27.0800 C.3   340  ASN340      0.1155
    101  CG        86.7590    2.5280   26.4740 C.2   340  ASN340      0.2627
    102  OD1       86.2890    2.4080   25.3510 O.2   340  ASN340     -0.2716
    103  ND2       86.5220    3.5850   27.2350 N.am  340  ASN340     -0.0877
@<TRIPOS>BOND
     1    72    73    1
     2    74    73    1
     3    74    75    2
     4    73    76    1
     5    76    77    1
     6    77    79    1
     7    77    78    1
     8    37    38    1
     9    37    34    1
    10    33    34    1
    11    98    99    2
    12    98    97    1
    13    40    38   ar
    14    40    42   ar
    15    38    39   ar
    16   102   101    2
    17    34    35    1
    18    42    43   ar
    19    39    41   ar
    20    97    96    1
    21    97   100    1
    22    43    41   ar
    23    43    44    1
    24   101   100    1
    25   101   103   am
    26    35    36    2
    27    84    81    1
    28    80    81    1
    29    23    21    1
    30    81    82    1
    31     5     6    1
    32     5     2    1
    33    22    21    1
    34     4     3    2
    35     3     2    1
    36    21    20    1
    37    13    14    1
    38    13    12    1
    39     2     1    1
    40    11    12    1
    41    11     8    1
    42    20    17    1
    43     9    10    2
    44     9     8    1
    45    82    83    2
    46    82    85   am
    47    14    15    1
    48     8     7    1
    49    88    87    2
    50    17    16    1
    51    17    18    1
    52    85    86    1
    53    95    94    2
    54    45    46    1
    55    87    86    1
    56    87    92   am
    57    51    50    2
    58    18    19    2
    59    18    24   am
    60    86    89    1
    61    94    93    1
    62    32    30   am
    63    93    92    1
    64    50    52   am
    65    50    49    1
    66    46    49    1
    67    46    47    1
    68    24    25    1
    69    90    89    1
    70    89    91    1
    71    30    29    1
    72    30    31    2
    73    29    28    1
    74    64    61    1
    75    64    65    1
    76    47    48    2
    77    25    28    1
    78    25    26    1
    79    61    60    1
    80    61    62    1
    81    63    62    2
    82    65    67   ar
    83    65    66   ar
    84    67    69   ar
    85    27    26    2
    86    66    68   ar
    87    69    70   ar
    88    68    70   ar
    89    70    71    1
    90    59    57    1
    91    57    54    1
    92    57    58    1
    93    53    54    1
    94    54    55    1
    95    55    56    2
