@<TRIPOS>MOLECULE
tmp/1picA00.pdb
 181 172 0 0 0
SMALL
GASTEIGER

@<TRIPOS>ATOM
      1  N         16.9040   -9.5950    5.5130 N.3    19  ARG19      -0.1245
      2  CA        17.3070  -10.2550    6.7850 C.3    19  ARG19       0.1563
      3  C         16.3630   -9.7960    7.8920 C.2    19  ARG19       0.2260
      4  O         15.5250  -10.5410    8.3600 O.2    19  ARG19      -0.2867
      5  CB        18.7430   -9.8680    7.1400 C.3    19  ARG19       0.0307
      6  CG        19.3200  -10.8990    8.1140 C.3    19  ARG19       0.0489
      7  CD        18.9150  -10.5380    9.5450 C.3    19  ARG19       0.2205
      8  NE        19.3090   -9.1300    9.8340 N.pl3  19  ARG19      -0.0865
      9  CZ        20.2910   -8.8840   10.6590 C.cat  19  ARG19       0.5346
     10  NH1       21.4430   -9.4750   10.4950 N.pl3  19  ARG19       0.1354
     11  NH2       20.1200   -8.0480   11.6470 N.pl3  19  ARG19       0.1354
     12  N         15.8820  -16.7780    1.8770 N.3    37  ARG37      -0.1245
     13  CA        16.4110  -15.5140    1.2920 C.3    37  ARG37       0.1563
     14  C         17.8910  -15.6910    0.9560 C.2    37  ARG37       0.2260
     15  O         18.4460  -16.7640    1.0910 O.2    37  ARG37      -0.2867
     16  CB        16.2640  -14.3750    2.3040 C.3    37  ARG37       0.0307
     17  CG        16.6960  -14.8630    3.6890 C.3    37  ARG37       0.0489
     18  CD        17.6630  -13.8520    4.3070 C.3    37  ARG37       0.2205
     19  NE        18.4090  -14.4980    5.4230 N.pl3  37  ARG37      -0.0865
     20  CZ        19.6010  -14.0750    5.7420 C.cat  37  ARG37       0.5346
     21  NH1       20.5170  -13.9500    4.8210 N.pl3  37  ARG37       0.1354
     22  NH2       19.8780  -13.7780    6.9830 N.pl3  37  ARG37       0.1354
     23  N         21.9520  -13.3760    0.5470 N.3    39  SER39      -0.1217
     24  CA        22.7590  -12.3540    1.2720 C.3    39  SER39       0.1889
     25  C         24.0810  -12.1260    0.5340 C.2    39  SER39       0.2288
     26  O         24.1980  -12.3920   -0.6450 O.2    39  SER39      -0.2866
     27  CB        23.0470  -12.8430    2.6930 C.3    39  SER39       0.2089
     28  OG        23.1910  -11.7210    3.5540 O.3    39  SER39      -0.2183
     29  N         26.5610  -13.7960    0.8300 N.3    41  LYS41      -0.1245
     30  CA        27.2680  -15.0990    0.7690 C.3    41  LYS41       0.1561
     31  C         27.8620  -15.2960   -0.6270 C.2    41  LYS41       0.2260
     32  O         27.7490  -14.4460   -1.4870 O.2    41  LYS41      -0.2867
     33  CB        26.2700  -16.2180    1.0600 C.3    41  LYS41       0.0271
     34  CG        25.6720  -16.0230    2.4540 C.3    41  LYS41       0.0035
     35  CD        24.6280  -17.1100    2.7160 C.3    41  LYS41       0.0206
     36  CE        23.6630  -16.6420    3.8060 C.3    41  LYS41       0.1093
     37  NZ        24.4190  -16.3910    5.0650 N.3    41  LYS41      -0.1314
     38  N         19.8380  -18.6470    3.2180 N.3    46  ALA46      -0.1245
     39  CA        19.5230  -18.6680    4.6720 C.3    46  ALA46       0.1562
     40  C         18.0130  -18.7940    4.8280 C.2    46  ALA46       0.2260
     41  O         17.2610  -17.9890    4.3190 O.2    46  ALA46      -0.2867
     42  CB        19.9870  -17.3740    5.3420 C.3    46  ALA46       0.0290
     43  N         13.4910  -19.2670    9.7500 N.3    49  VAL49      -0.1245
     44  CA        12.3450  -20.1050   10.2210 C.3    49  VAL49       0.1561
     45  C         11.9100  -19.6950   11.6300 C.2    49  VAL49       0.2260
     46  O         12.7170  -19.3230   12.4560 O.2    49  VAL49      -0.2867
     47  CB        12.7750  -21.5720   10.2460 C.3    49  VAL49       0.0252
     48  CG1       14.0830  -21.7030   11.0300 C.3    49  VAL49       0.0019
     49  CG2       11.6900  -22.4100   10.9280 C.3    49  VAL49       0.0019
     50  N         14.3970  -17.1380   13.7020 N.3    56  LYS56      -0.1231
     51  CA        15.8820  -17.1190   13.6600 C.3    56  LYS56       0.1693
     52  C         16.3320  -17.3230   12.2150 C.2    56  LYS56       0.2592
     53  O         15.5560  -17.7150   11.3650 O.2    56  LYS56      -0.2718
     54  CB        16.4280  -18.2540   14.5280 C.3    56  LYS56       0.0285
     55  CG        17.3990  -17.6860   15.5640 C.3    56  LYS56       0.0035
     56  CD        17.7560  -18.7730   16.5800 C.3    56  LYS56       0.0206
     57  CE        18.5640  -18.1570   17.7240 C.3    56  LYS56       0.1093
     58  NZ        18.7380  -19.1640   18.8080 N.3    56  LYS56      -0.1314
     59  N         17.5760  -17.0690   11.9230 N.am   57  HIS57      -0.1962
     60  CA        18.0550  -17.2590   10.5300 C.3    57  HIS57       0.1787
     61  C         18.9340  -18.5060   10.4710 C.2    57  HIS57       0.2620
     62  O         19.8280  -18.6810   11.2720 O.2    57  HIS57      -0.2715
     63  CB        18.8780  -16.0420   10.0990 C.3    57  HIS57       0.0785
     64  CG        17.9590  -14.9040    9.7460 C.ar   57  HIS57       0.0821
     65  ND1       17.3370  -14.8100    8.5110 N.ar   57  HIS57      -0.2267
     66  CD2       17.5580  -13.7970   10.4530 C.ar   57  HIS57       0.1154
     67  CE1       16.6020  -13.6820    8.5130 C.ar   57  HIS57       0.1986
     68  NE2       16.7010  -13.0270    9.6730 N.ar   57  HIS57      -0.2212
     69  N         18.6940  -19.3700    9.5270 N.am   58  CYS58      -0.1954
     70  CA        19.5300  -20.5980    9.4150 C.3    58  CYS58       0.1843
     71  C         20.1120  -20.6620    8.0050 C.2    58  CYS58       0.2625
     72  O         19.7610  -19.8770    7.1510 O.2    58  CYS58      -0.2714
     73  CB        18.6660  -21.8350    9.6740 C.3    58  CYS58       0.0997
     74  SG        17.8110  -21.6540   11.2590 S.3    58  CYS58      -0.0797
     75  N         20.9990  -21.5830    7.7500 N.am   59  VAL59      -0.1977
     76  CA        21.5920  -21.6770    6.3860 C.3    59  VAL59       0.1596
     77  C         21.0520  -22.9230    5.6830 C.2    59  VAL59       0.2287
     78  O         20.6960  -23.8990    6.3120 O.2    59  VAL59      -0.2864
     79  CB        23.1170  -21.7570    6.4950 C.3    59  VAL59       0.0276
     80  CG1       23.7070  -22.2360    5.1660 C.3    59  VAL59       0.0022
     81  CG2       23.6700  -20.3680    6.8220 C.3    59  VAL59       0.0022
     82  N         20.1110  -28.8310    3.6280 N.3    69  PHE69      -0.1227
     83  CA        19.8260  -27.9000    4.7570 C.3    69  PHE69       0.1736
     84  C         21.0230  -27.8690    5.7070 C.2    69  PHE69       0.2595
     85  O         20.9610  -27.3030    6.7800 O.2    69  PHE69      -0.2718
     86  CB        18.5900  -28.3800    5.5190 C.3    69  PHE69       0.0547
     87  CG        17.6540  -27.2160    5.7390 C.ar   69  PHE69      -0.0202
     88  CD1       18.1510  -26.0030    6.2290 C.ar   69  PHE69      -0.0042
     89  CD2       16.2910  -27.3490    5.4510 C.ar   69  PHE69      -0.0042
     90  CE1       17.2840  -24.9230    6.4330 C.ar   69  PHE69      -0.0003
     91  CE2       15.4240  -26.2700    5.6540 C.ar   69  PHE69      -0.0003
     92  CZ        15.9210  -25.0570    6.1450 C.ar   69  PHE69      -0.0000
     93  N         22.1120  -28.4750    5.3250 N.am   70  ALA70      -0.1966
     94  CA        23.3070  -28.4790    6.2120 C.3    70  ALA70       0.1728
     95  C         24.3130  -29.5150    5.7040 C.2    70  ALA70       0.2616
     96  O         25.5020  -29.3960    5.9190 O.2    70  ALA70      -0.2715
     97  CB        22.8760  -28.8330    7.6370 C.3    70  ALA70       0.0334
     98  N         23.8450  -30.5270    5.0240 N.am   71  GLU71      -0.1977
     99  CA        24.7770  -31.5640    4.4960 C.3    71  GLU71       0.1602
    100  C         24.5280  -31.7450    2.9940 C.2    71  GLU71       0.2287
    101  O         23.4000  -31.6930    2.5470 O.2    71  GLU71      -0.2864
    102  CB        24.5330  -32.8900    5.2210 C.3    71  GLU71       0.0415
    103  CG        25.8340  -33.3570    5.8780 C.3    71  GLU71       0.1163
    104  CD        25.5110  -34.1650    7.1370 C.2    71  GLU71       0.3649
    105  OE1       25.3370  -33.5560    8.1800 O.co2  71  GLU71      -0.2457
    106  OE2       25.4420  -35.3790    7.0360 O.co2  71  GLU71      -0.2457
    107  N         12.5650  -31.2200    4.4830 N.3    86  TYR86      -0.1241
    108  CA        12.4090  -30.7230    5.8680 C.3    86  TYR86       0.1605
    109  C         10.9710  -30.2510    6.0840 C.2    86  TYR86       0.2264
    110  O         10.5420  -30.0450    7.2010 O.2    86  TYR86      -0.2867
    111  CB        13.3800  -29.5670    6.0890 C.3    86  TYR86       0.0534
    112  CG        14.7780  -30.1160    6.2480 C.ar   86  TYR86      -0.0201
    113  CD1       15.4780  -30.5780    5.1270 C.ar   86  TYR86      -0.0009
    114  CD2       15.3720  -30.1670    7.5140 C.ar   86  TYR86      -0.0009
    115  CE1       16.7720  -31.0910    5.2720 C.ar   86  TYR86       0.0417
    116  CE2       16.6670  -30.6810    7.6590 C.ar   86  TYR86       0.0417
    117  CZ        17.3660  -31.1430    6.5380 C.ar   86  TYR86       0.1957
    118  OH        18.6400  -31.6510    6.6800 O.3    86  TYR86      -0.2866
    119  N         10.1750  -33.0770    7.7930 N.3    89  THR89      -0.1203
    120  CA        11.2380  -33.6250    8.6830 C.3    89  THR89       0.1994
    121  C         11.5310  -32.6210    9.8010 C.2    89  THR89       0.2619
    122  O         11.5000  -31.4240    9.5970 O.2    89  THR89      -0.2717
    123  CB        12.5110  -33.8700    7.8690 C.3    89  THR89       0.1784
    124  OG1       12.1580  -34.2970    6.5600 O.3    89  THR89      -0.2211
    125  CG2       13.3560  -34.9480    8.5510 C.3    89  THR89       0.0376
    126  N         11.8070  -33.1010   10.9840 N.am   90  SER90      -0.1937
    127  CA        12.0910  -32.1770   12.1200 C.3    90  SER90       0.2055
    128  C         13.5010  -31.5970   11.9830 C.2    90  SER90       0.2642
    129  O         14.4040  -32.2410   11.4890 O.2    90  SER90      -0.2714
    130  CB        11.9840  -32.9450   13.4370 C.3    90  SER90       0.2130
    131  OG        11.9950  -32.0250   14.5200 O.3    90  SER90      -0.2179
    132  N         13.6940  -30.3820   12.4220 N.am   91  LEU91      -0.1977
    133  CA        15.0350  -29.7530   12.3260 C.3    91  LEU91       0.1596
    134  C         15.7100  -29.7850   13.7030 C.2    91  LEU91       0.2287
    135  O         16.6420  -29.0520   13.9650 O.2    91  LEU91      -0.2864
    136  CB        14.8690  -28.3010   11.8760 C.3    91  LEU91       0.0297
    137  CG        14.6270  -28.2510   10.3650 C.3    91  LEU91       0.0022
    138  CD1       13.6250  -27.1390   10.0460 C.3    91  LEU91       0.0001
    139  CD2       15.9450  -27.9660    9.6410 C.3    91  LEU91       0.0001
    140  N         17.0610  -32.5690   14.9830 N.3    93  GLN93      -0.1231
    141  CA        18.1770  -33.5550   14.9320 C.3    93  GLN93       0.1698
    142  C         19.5090  -32.8350   15.1500 C.2    93  GLN93       0.2592
    143  O         20.4830  -33.4280   15.5710 O.2    93  GLN93      -0.2718
    144  CB        18.1870  -34.2470   13.5670 C.3    93  GLN93       0.0381
    145  CG        18.7680  -35.6550   13.7140 C.3    93  GLN93       0.0905
    146  CD        18.1890  -36.5630   12.6280 C.2    93  GLN93       0.2608
    147  OE1       17.1930  -36.2350   12.0140 O.2    93  GLN93      -0.2717
    148  NE2       18.7740  -37.6990   12.3640 N.am   93  GLN93      -0.0878
    149  N         19.5630  -31.5640   14.8650 N.am   94  HIS94      -0.1962
    150  CA        20.8350  -30.8130   15.0550 C.3    94  HIS94       0.1787
    151  C         20.7600  -29.9800   16.3350 C.2    94  HIS94       0.2620
    152  O         21.7540  -29.7530   16.9960 O.2    94  HIS94      -0.2715
    153  CB        21.0690  -29.8910   13.8570 C.3    94  HIS94       0.0785
    154  CG        22.4000  -30.2090   13.2340 C.ar   94  HIS94       0.0821
    155  ND1       23.4750  -29.3370   13.2990 N.ar   94  HIS94      -0.2267
    156  CD2       22.8460  -31.3020   12.5320 C.ar   94  HIS94       0.1154
    157  CE1       24.5050  -29.9140   12.6530 C.ar   94  HIS94       0.1986
    158  NE2       24.1750  -31.1130   12.1660 N.ar   94  HIS94      -0.2212
    159  N         19.5940  -29.5210   16.6910 N.am   95  ASN95      -0.1972
    160  CA        19.4670  -28.7030   17.9300 C.3    95  ASN95       0.1688
    161  C         18.2240  -29.1370   18.7100 C.2    95  ASN95       0.2292
    162  O         17.1430  -29.2370   18.1660 O.2    95  ASN95      -0.2864
    163  CB        19.3450  -27.2250   17.5530 C.3    95  ASN95       0.1181
    164  CG        20.7310  -26.6600   17.2480 C.2    95  ASN95       0.2629
    165  OD1       21.5690  -26.5640   18.1230 O.2    95  ASN95      -0.2716
    166  ND2       21.0090  -26.2810   16.0320 N.am   95  ASN95      -0.0877
    167  N         15.1970  -26.6970   18.5180 N.3    98  LEU98      -0.1245
    168  CA        14.6090  -26.3440   17.1970 C.3    98  LEU98       0.1561
    169  C         13.2870  -27.0870   17.0130 C.2    98  LEU98       0.2260
    170  O         12.2190  -26.5280   17.1640 O.2    98  LEU98      -0.2867
    171  CB        15.5840  -26.7460   16.0880 C.3    98  LEU98       0.0270
    172  CG        16.7670  -25.7780   16.0790 C.3    98  LEU98       0.0019
    173  CD1       17.6540  -26.0650   14.8670 C.3    98  LEU98       0.0001
    174  CD2       16.2480  -24.3400   15.9990 C.3    98  LEU98       0.0001
    175  N         11.6830  -27.6760   14.6110 N.3   100  VAL100     -0.1245
    176  CA        10.8250  -26.8940   13.6900 C.3   100  VAL100      0.1561
    177  C         10.9470  -27.4630   12.2770 C.2   100  VAL100      0.2260
    178  O         11.8160  -28.2640   11.9930 O.2   100  VAL100     -0.2867
    179  CB        11.2860  -25.4410   13.6960 C.3   100  VAL100      0.0252
    180  CG1       10.7060  -24.7270   14.9160 C.3   100  VAL100      0.0019
    181  CG2       12.8140  -25.3930   13.7580 C.3   100  VAL100      0.0019
@<TRIPOS>BOND
     1    32    31    2
     2    26    25    2
     3    31    30    1
     4    25    24    1
     5    23    24    1
     6    30    29    1
     7    30    33    1
     8    14    15    2
     9    14    13    1
    10    33    34    1
    11    24    27    1
    12    13    12    1
    13    13    16    1
    14    16    17    1
    15    34    35    1
    16   101   100    2
    17    27    28    1
    18    35    36    1
    19   100    99    1
    20    38    39    1
    21    82    83    1
    22    17    18    1
    23    36    37    1
    24    18    19    1
    25    41    40    2
    26   107   108    1
    27    99    98    1
    28    99   102    1
    29    39    40    1
    30    39    42    1
    31    83    86    1
    32    83    84    1
    33    21    20    1
    34    98    95   am
    35   113   115   ar
    36   113   112   ar
    37    80    79    1
    38   102   103    1
    39   115   117   ar
    40    93    84   am
    41    93    94    1
    42    19    20    2
    43    89    91   ar
    44    89    87   ar
    45     1     2    1
    46    86    87    1
    47    91    92   ar
    48    77    78    2
    49    77    76    1
    50    95    96    2
    51    95    94    1
    52    84    85    2
    53    87    88   ar
    54    20    22    1
    55   108   109    1
    56   108   111    1
    57   103   104    1
    58   109   110    2
    59   111   112    1
    60    92    90   ar
    61    94    97    1
    62    88    90   ar
    63   112   114   ar
    64    76    79    1
    65    76    75    1
    66    79    81    1
    67   117   118    1
    68   117   116   ar
    69   124   123    1
    70     2     5    1
    71     2     3    1
    72   106   104   ar
    73   104   105   ar
    74     5     6    1
    75    72    71    2
    76   114   116   ar
    77    75    71   am
    78   119   120    1
    79   123   125    1
    80   123   120    1
    81     3     4    2
    82    71    70    1
    83     6     7    1
    84    65    67   ar
    85    65    64   ar
    86    67    68   ar
    87   120   121    1
    88    70    69    1
    89    70    73    1
    90    69    61   am
    91     7     8    1
    92   122   121    2
    93   139   137    1
    94    68    66   ar
    95    73    74    1
    96    64    63    1
    97    64    66   ar
    98    43    44    1
    99   121   126   am
   100     8     9    2
   101   138   137    1
   102    63    60    1
   103    44    47    1
   104    44    45    1
   105    47    49    1
   106    47    48    1
   107   137   136    1
   108    61    60    1
   109    61    62    2
   110    10     9    1
   111    60    59    1
   112     9    11    1
   113   126   127    1
   114    53    52    2
   115   129   128    2
   116    45    46    2
   117   136   133    1
   118    59    52   am
   119   128   127    1
   120   128   132   am
   121   178   177    2
   122   147   146    2
   123   127   130    1
   124   158   156   ar
   125   158   157   ar
   126    52    51    1
   127   177   176    1
   128   133   132    1
   129   133   134    1
   130   148   146   am
   131   156   154   ar
   132   146   145    1
   133   157   155   ar
   134   154   155   ar
   135   154   153    1
   136   130   131    1
   137   144   145    1
   138   144   141    1
   139    51    50    1
   140    51    54    1
   141   176   179    1
   142   176   175    1
   143   179   181    1
   144   179   180    1
   145   134   135    2
   146   153   150    1
   147    54    55    1
   148   149   150    1
   149   149   142   am
   150   173   172    1
   151   141   140    1
   152   141   142    1
   153   150   151    1
   154   142   143    2
   155    55    56    1
   156   174   172    1
   157   166   164   am
   158   172   171    1
   159   171   168    1
   160   151   159   am
   161   151   152    2
   162    56    57    1
   163   159   160    1
   164   169   170    2
   165   169   168    1
   166   168   167    1
   167   164   163    1
   168   164   165    2
   169   163   160    1
   170    57    58    1
   171   160   161    1
   172   162   161    2
