@<TRIPOS>MOLECULE
tmp/1pieA00.pdb
 132 128 0 0 0
SMALL
GASTEIGER

@<TRIPOS>ATOM
      1  N        107.0100   29.6330   59.4350 N.3    28  ARG28      -0.1245
      2  CA       107.8640   30.0210   58.3380 C.3    28  ARG28       0.1563
      3  C        108.8520   28.9480   58.0110 C.2    28  ARG28       0.2260
      4  O        109.1170   28.0440   58.7950 O.2    28  ARG28      -0.2867
      5  CB       108.6730   31.2830   58.7310 C.3    28  ARG28       0.0307
      6  CG       109.6540   31.0800   59.9250 C.3    28  ARG28       0.0489
      7  CD       111.0780   30.7200   59.4980 C.3    28  ARG28       0.2205
      8  NE       112.0680   30.3910   60.5420 N.pl3  28  ARG28      -0.0865
      9  CZ       112.3440   29.1680   61.0380 C.cat  28  ARG28       0.5346
     10  NH1      111.6800   28.0820   60.7000 N.pl3  28  ARG28       0.1354
     11  NH2      113.2960   29.0070   61.9380 N.pl3  28  ARG28       0.1354
     12  N        120.1880   30.1080   53.9520 N.3    33  GLY33      -0.1210
     13  CA       120.9070   30.9900   54.8710 C.3    33  GLY33       0.1956
     14  C        120.6030   30.6910   56.3570 C.2    33  GLY33       0.2612
     15  O        119.8580   31.4330   56.9980 O.2    33  GLY33      -0.2717
     16  N        121.1760   29.5930   56.8700 N.am   34  GLU34      -0.1965
     17  CA       120.9680   29.0590   58.2100 C.3    34  GLU34       0.1733
     18  C        122.1350   29.3400   59.1560 C.2    34  GLU34       0.2616
     19  O        123.3050   29.0550   58.8230 O.2    34  GLU34      -0.2715
     20  CB       120.8390   27.5380   58.0570 C.3    34  GLU34       0.0429
     21  CG       119.6870   26.9000   58.8560 C.3    34  GLU34       0.1163
     22  CD       118.3790   27.5160   58.4900 C.2    34  GLU34       0.3649
     23  OE1      117.9600   28.4940   59.0640 O.co2  34  GLU34      -0.2457
     24  OE2      117.7680   26.8900   57.4980 O.co2  34  GLU34      -0.2457
     25  N        121.7590   29.8790   60.3320 N.am   35  HIS35      -0.1959
     26  CA       122.6500   30.2680   61.4170 C.3    35  HIS35       0.1787
     27  C        123.5490   31.4020   60.9990 C.2    35  HIS35       0.2621
     28  O        124.6920   31.5080   61.4500 O.2    35  HIS35      -0.2715
     29  CB       123.5070   29.1140   61.9700 C.3    35  HIS35       0.0785
     30  CG       122.6850   28.0630   62.6230 C.ar   35  HIS35       0.0821
     31  ND1      122.2510   28.2130   63.9430 N.ar   35  HIS35      -0.2267
     32  CD2      122.2260   26.8680   62.1150 C.ar   35  HIS35       0.1154
     33  CE1      121.5190   27.1330   64.2140 C.ar   35  HIS35       0.1986
     34  NE2      121.4990   26.3010   63.1440 N.ar   35  HIS35      -0.2212
     35  N        123.0060   32.2390   60.1170 N.am   36  THR36      -0.1937
     36  CA       123.7040   33.4260   59.5920 C.3    36  THR36       0.2028
     37  C        123.1720   34.6930   60.2750 C.2    36  THR36       0.2642
     38  O        123.8510   35.6900   60.4810 O.2    36  THR36      -0.2714
     39  CB       123.5650   33.6080   58.0270 C.3    36  THR36       0.1808
     40  OG1      122.2380   33.5000   57.5390 O.3    36  THR36      -0.2208
     41  CG2      124.4560   32.7160   57.1550 C.3    36  THR36       0.0379
     42  N        121.8900   34.6220   60.6230 N.am   37  ASP37      -0.1957
     43  CA       121.1500   35.7460   61.1710 C.3    37  ASP37       0.1840
     44  C        121.8220   36.3680   62.3350 C.2    37  ASP37       0.2622
     45  O        121.7270   37.5650   62.5320 O.2    37  ASP37      -0.2715
     46  CB       119.6350   35.4790   61.4510 C.3    37  ASP37       0.1450
     47  CG       119.3860   34.4150   62.4960 C.2    37  ASP37       0.3671
     48  OD1      120.2360   33.5840   62.8610 O.co2  37  ASP37      -0.2456
     49  OD2      118.1500   34.4970   62.9550 O.co2  37  ASP37      -0.2456
     50  N        122.4310   35.5200   63.1100 N.am   38  TYR38      -0.1974
     51  CA       123.1030   36.0110   64.2550 C.3    38  TYR38       0.1639
     52  C        124.6040   36.0480   63.9590 C.2    38  TYR38       0.2290
     53  O        125.4390   36.2100   64.8340 O.2    38  TYR38      -0.2864
     54  CB       122.6970   35.2050   65.4850 C.3    38  TYR38       0.0560
     55  CG       123.0660   33.7410   65.3530 C.ar   38  TYR38      -0.0198
     56  CD1      124.3560   33.2820   65.6390 C.ar   38  TYR38      -0.0009
     57  CD2      122.0900   32.8250   64.9540 C.ar   38  TYR38      -0.0009
     58  CE1      124.6670   31.9190   65.6170 C.ar   38  TYR38       0.0417
     59  CE2      122.3980   31.4660   64.8750 C.ar   38  TYR38       0.0417
     60  CZ       123.6780   31.0180   65.2100 C.ar   38  TYR38       0.1957
     61  OH       123.9560   29.6780   65.1480 O.3    38  TYR38      -0.2866
     62  N        115.4740   32.7320   74.8320 N.3   169  VAL169     -0.1231
     63  CA       115.9680   31.8940   73.7560 C.3   169  VAL169      0.1692
     64  C        116.8590   32.6330   72.8010 C.2   169  VAL169      0.2592
     65  O        116.4470   33.6230   72.1990 O.2   169  VAL169     -0.2718
     66  CB       114.8500   31.2740   72.9680 C.3   169  VAL169      0.0266
     67  CG1      115.5200   30.3210   71.9990 C.3   169  VAL169      0.0020
     68  CG2      113.8650   30.5670   73.9050 C.3   169  VAL169      0.0020
     69  N        118.0800   32.1610   72.6490 N.am  170  ASN170     -0.1960
     70  CA       118.9770   32.8510   71.7580 C.3   170  ASN170      0.1819
     71  C        118.6480   32.7270   70.2920 C.2   170  ASN170      0.2622
     72  O        118.2960   31.6400   69.8220 O.2   170  ASN170     -0.2715
     73  CB       120.4540   32.8900   72.1650 C.3   170  ASN170      0.1195
     74  CG       120.5410   34.1930   72.9020 C.2   170  ASN170      0.2630
     75  OD1      119.9770   35.1950   72.3990 O.2   170  ASN170     -0.2716
     76  ND2      121.1190   34.1420   74.1070 N.am  170  ASN170     -0.0877
     77  N        118.7330   33.8460   69.5780 N.am  171  SER171     -0.1936
     78  CA       118.4110   33.8190   68.1540 C.3   171  SER171      0.2055
     79  C        118.6990   35.1230   67.3790 C.2   171  SER171      0.2643
     80  O        119.1640   36.1390   67.8900 O.2   171  SER171     -0.2714
     81  CB       116.9380   33.4530   68.0000 C.3   171  SER171      0.2130
     82  OG       116.0760   34.6040   68.1560 O.3   171  SER171     -0.2179
     83  N        118.4190   35.0950   66.0930 N.am  172  GLY172     -0.1954
     84  CA       118.5720   36.2810   65.2970 C.3   172  GLY172      0.1869
     85  C        117.1330   36.7180   64.9860 C.2   172  GLY172      0.2309
     86  O        116.1470   36.2050   65.5210 O.2   172  GLY172     -0.2863
     87  N        115.6100   36.1800   62.2970 N.3   174  LEU174     -0.1231
     88  CA       115.0530   35.2940   61.2710 C.3   174  LEU174      0.1693
     89  C        113.5430   35.0140   61.2880 C.2   174  LEU174      0.2592
     90  O        112.8410   35.4090   60.3560 O.2   174  LEU174     -0.2718
     91  CB       115.8620   34.0010   61.0150 C.3   174  LEU174      0.0284
     92  CG       115.1890   33.0090   60.0290 C.3   174  LEU174      0.0019
     93  CD1      115.3090   33.4260   58.5520 C.3   174  LEU174      0.0001
     94  CD2      115.6810   31.5780   60.1990 C.3   174  LEU174      0.0001
     95  N        113.0480   34.2850   62.3010 N.am  175  ASP175     -0.1974
     96  CA       111.6400   33.9120   62.3720 C.3   175  ASP175      0.1709
     97  C        110.6400   35.0900   62.4100 C.2   175  ASP175      0.2293
     98  O        109.6820   35.1730   61.6260 O.2   175  ASP175     -0.2864
     99  CB       111.4840   32.9190   63.5220 C.3   175  ASP175      0.1436
    100  CG       112.5500   31.8750   63.4630 C.2   175  ASP175      0.3671
    101  OD1      113.2830   31.6450   62.5230 O.co2 175  ASP175     -0.2456
    102  OD2      112.6010   31.2060   64.5460 O.co2 175  ASP175     -0.2456
    103  N        117.4740   23.1330   73.9930 N.3   222  GLU222     -0.1245
    104  CA       118.1980   24.1760   73.2540 C.3   222  GLU222      0.1567
    105  C        119.5980   24.5760   73.7400 C.2   222  GLU222      0.2260
    106  O        119.9520   25.7610   73.8460 O.2   222  GLU222     -0.2867
    107  CB       117.3210   25.4510   73.1050 C.3   222  GLU222      0.0388
    108  CG       116.3270   25.4030   71.9130 C.3   222  GLU222      0.1160
    109  CD       116.3830   26.6670   71.0560 C.2   222  GLU222      0.3649
    110  OE1      117.2530   27.5460   71.2040 O.co2 222  GLU222     -0.2457
    111  OE2      115.4330   26.7290   70.1180 O.co2 222  GLU222     -0.2457
    112  N        122.0940   24.7630   70.4740 N.3   225  TYR225     -0.1241
    113  CA       121.9410   25.9890   69.7260 C.3   225  TYR225      0.1605
    114  C        122.8060   27.0330   70.3440 C.2   225  TYR225      0.2264
    115  O        123.6220   27.7140   69.6900 O.2   225  TYR225     -0.2867
    116  CB       120.4830   26.5100   69.7320 C.3   225  TYR225      0.0534
    117  CG       120.3090   27.7710   68.8820 C.ar  225  TYR225     -0.0201
    118  CD1      119.8870   27.7140   67.5490 C.ar  225  TYR225     -0.0009
    119  CD2      120.5750   29.0340   69.4110 C.ar  225  TYR225     -0.0009
    120  CE1      119.7250   28.8550   66.7580 C.ar  225  TYR225      0.0417
    121  CE2      120.4080   30.1920   68.6480 C.ar  225  TYR225      0.0417
    122  CZ       120.0010   30.1050   67.3150 C.ar  225  TYR225      0.1957
    123  OH       119.8940   31.2540   66.5470 O.3   225  TYR225     -0.2866
    124  N        115.6630   25.9300   59.3320 N.3   339  GLY339     -0.1210
    125  CA       115.5370   26.2170   60.7700 C.3   339  GLY339      0.1956
    126  C        116.7790   25.7800   61.6110 C.2   339  GLY339      0.2611
    127  O        117.9150   25.5210   61.1410 O.2   339  GLY339     -0.2717
    128  N        116.5750   25.6980   62.9140 N.am  340  ALA340     -0.1979
    129  CA       117.6470   25.3570   63.8240 C.3   340  ALA340      0.1597
    130  C        118.4910   24.1010   63.5200 C.2   340  ALA340      0.2287
    131  O        119.7240   24.1220   63.5100 O.2   340  ALA340     -0.2864
    132  CB       117.1280   25.4290   65.2420 C.3   340  ALA340      0.0319
@<TRIPOS>BOND
     1    12    13    1
     2    13    14    1
     3    14    16   am
     4    14    15    2
     5    16    17    1
     6    41    39    1
     7    24    22   ar
     8    40    39    1
     9     3     2    1
    10     3     4    2
    11    39    36    1
    12    20    17    1
    13    20    21    1
    14    17    18    1
    15     2     5    1
    16     2     1    1
    17    22    21    1
    18    22    23   ar
    19    93    92    1
    20     5     6    1
    21    19    18    2
    22    18    25   am
    23   124   125    1
    24     7     6    1
    25     7     8    1
    26    36    35    1
    27    36    37    1
    28    92    94    1
    29    92    91    1
    30    35    27   am
    31    37    38    2
    32    37    42   am
    33    25    26    1
    34    90    89    2
    35     8     9    2
    36    42    43    1
    37    10     9    1
    38   125   126    1
    39    27    26    1
    40    27    28    2
    41    91    88    1
    42     9    11    1
    43   127   126    2
    44    43    46    1
    45    43    44    1
    46    88    89    1
    47    88    87    1
    48    89    95   am
    49    26    29    1
    50    46    47    1
    51   126   128   am
    52    98    97    2
    53    29    30    1
    54    32    30   ar
    55    32    34   ar
    56    95    96    1
    57    44    45    2
    58    44    50   am
    59    96    97    1
    60    96    99    1
    61    47    48   ar
    62    47    49   ar
    63   101   100   ar
    64    30    31   ar
    65   128   129    1
    66    50    51    1
    67    34    33   ar
    68   100    99    1
    69   100   102   ar
    70   131   130    2
    71   130   129    1
    72   129   132    1
    73    31    33   ar
    74    52    51    1
    75    52    53    2
    76    51    54    1
    77    59    57   ar
    78    59    60   ar
    79    57    55   ar
    80    85    84    1
    81    85    86    2
    82    61    60    1
    83    60    58   ar
    84    84    83    1
    85    55    54    1
    86    55    56   ar
    87    58    56   ar
    88    83    79   am
    89   123   122    1
    90   120   122   ar
    91   120   118   ar
    92   122   121   ar
    93    79    80    2
    94    79    78    1
    95   118   117   ar
    96    81    78    1
    97    81    82    1
    98    78    77    1
    99   121   119   ar
   100   117   119   ar
   101   117   116    1
   102    77    71   am
   103   115   114    2
   104   113   116    1
   105   113   114    1
   106   113   112    1
   107    72    71    2
   108   111   109   ar
   109    71    70    1
   110   109   110   ar
   111   109   108    1
   112    70    73    1
   113    70    69    1
   114   108   107    1
   115    67    66    1
   116    73    74    1
   117    65    64    2
   118    75    74    2
   119    69    64   am
   120    64    63    1
   121    74    76   am
   122    66    63    1
   123    66    68    1
   124   107   104    1
   125   104   105    1
   126   104   103    1
   127   105   106    2
   128    63    62    1
