@<TRIPOS>MOLECULE
tmp/1pipA00.pdb
 131 127 0 0 0
SMALL
GASTEIGER

@<TRIPOS>ATOM
      1  N         59.7030   33.4190   22.5220 N.3    19  GLN19      -0.1245
      2  CA        58.2950   33.7300   22.6020 C.3    19  GLN19       0.1566
      3  C         57.6230   33.5300   21.2670 C.2    19  GLN19       0.2260
      4  O         56.3980   33.4840   21.1650 O.2    19  GLN19      -0.2867
      5  CB        58.1200   35.1700   23.1090 C.3    19  GLN19       0.0367
      6  CG        58.6210   36.2200   22.1250 C.3    19  GLN19       0.0905
      7  CD        58.4780   37.6540   22.6110 C.2    19  GLN19       0.2608
      8  OE1       59.2520   38.0920   23.4450 O.2    19  GLN19      -0.2717
      9  NE2       57.5030   38.4500   22.1990 N.am   19  GLN19      -0.0878
     10  N         53.2100   38.4150   21.0560 N.3    23  GLY23      -0.1225
     11  CA        53.7740   39.5150   21.8350 C.3    23  GLY23       0.1811
     12  C         53.6330   39.1760   23.3100 C.2    23  GLY23       0.2280
     13  O         52.9130   39.8830   24.0130 O.2    23  GLY23      -0.2866
     14  N         56.1990   38.8970   25.5830 N.3    25  CYS25      -0.1235
     15  CA        57.3900   39.3530   26.2920 C.3    25  CYS25       0.1677
     16  C         57.1530   39.6600   27.7420 C.2    25  CYS25       0.2270
     17  O         57.8750   39.2060   28.6290 O.2    25  CYS25      -0.2867
     18  CB        57.9570   40.5990   25.5550 C.3    25  CYS25       0.0956
     19  SG        56.7610   41.7570   24.8410 S.3    25  CYS25      -0.0801
     20  N         50.2480   40.5070   21.1330 N.3    64  ASN64      -0.1225
     21  CA        50.1370   41.9970   21.1260 C.3    64  ASN64       0.1785
     22  C         50.0560   42.8090   22.4500 C.2    64  ASN64       0.2598
     23  O         49.5720   43.9250   22.4540 O.2    64  ASN64      -0.2718
     24  CB        48.9630   42.5560   20.1900 C.3    64  ASN64       0.1169
     25  CG        47.4960   42.1290   20.1630 C.2    64  ASN64       0.2627
     26  OD1       47.0130   41.8080   19.0720 O.2    64  ASN64      -0.2716
     27  ND2       46.6850   42.0380   21.2030 N.am   64  ASN64      -0.0877
     28  N         50.4820   42.3120   23.6110 N.am   65  GLY65      -0.1942
     29  CA        50.9220   43.2150   24.6340 C.3    65  GLY65       0.2014
     30  C         50.4100   43.0160   26.0170 C.2    65  GLY65       0.2639
     31  O         49.3580   42.4550   26.2560 O.2    65  GLY65      -0.2714
     32  N         51.1130   43.5750   26.9880 N.am   66  GLY66      -0.1939
     33  CA        50.7100   43.4890   28.3660 C.3    66  GLY66       0.2014
     34  C         51.7100   44.1300   29.3110 C.2    66  GLY66       0.2638
     35  O         52.6670   44.7620   28.8780 O.2    66  GLY66      -0.2714
     36  N         51.5390   43.8800   30.6080 N.am   67  TYR67      -0.1973
     37  CA        52.2680   44.5460   31.6580 C.3    67  TYR67       0.1639
     38  C         52.8500   43.5260   32.5750 C.2    67  TYR67       0.2290
     39  O         52.0580   42.8440   33.2200 O.2    67  TYR67      -0.2864
     40  CB        51.3830   45.3910   32.5340 C.3    67  TYR67       0.0560
     41  CG        50.4340   46.2210   31.7200 C.ar   67  TYR67      -0.0198
     42  CD1       50.9690   47.2270   30.9440 C.ar   67  TYR67      -0.0009
     43  CD2       49.0830   45.9360   31.7310 C.ar   67  TYR67      -0.0009
     44  CE1       50.1380   47.9720   30.1520 C.ar   67  TYR67       0.0417
     45  CE2       48.2450   46.6820   30.9380 C.ar   67  TYR67       0.0417
     46  CZ        48.7880   47.6920   30.1700 C.ar   67  TYR67       0.1957
     47  OH        47.9620   48.5160   29.4440 O.3    67  TYR67      -0.2866
     48  N         63.6380   49.7070   24.3450 N.3   135  GLN135     -0.1231
     49  CA        63.2650   49.9140   22.9600 C.3   135  GLN135      0.1698
     50  C         64.0120   48.8480   22.1760 C.2   135  GLN135      0.2592
     51  O         65.2370   48.8780   22.0140 O.2   135  GLN135     -0.2718
     52  CB        63.7120   51.2680   22.5020 C.3   135  GLN135      0.0381
     53  CG        63.2600   51.4620   21.0800 C.3   135  GLN135      0.0905
     54  CD        63.9450   52.6280   20.4180 C.2   135  GLN135      0.2608
     55  OE1       65.0100   52.4930   19.8250 O.2   135  GLN135     -0.2717
     56  NE2       63.3720   53.8070   20.4450 N.am  135  GLN135     -0.0878
     57  N         63.2900   47.9390   21.5530 N.am  136  ALA136     -0.1966
     58  CA        63.9090   46.8190   20.8900 C.3   136  ALA136      0.1728
     59  C         63.6210   46.8550   19.4070 C.2   136  ALA136      0.2616
     60  O         64.0580   45.9840   18.6670 O.2   136  ALA136     -0.2715
     61  CB        63.3770   45.4980   21.4510 C.3   136  ALA136      0.0334
     62  N         62.9120   47.9010   18.9500 N.am  137  ALA137     -0.1977
     63  CA        62.5180   48.0190   17.5520 C.3   137  ALA137      0.1597
     64  C         63.5810   48.3710   16.5270 C.2   137  ALA137      0.2287
     65  O         63.4040   47.9920   15.3670 O.2   137  ALA137     -0.2864
     66  CB        61.4560   49.0700   17.3870 C.3   137  ALA137      0.0319
     67  N         67.9230   44.3850   17.0390 N.3   142  GLN142     -0.1245
     68  CA        67.5100   43.1130   16.4390 C.3   142  GLN142      0.1566
     69  C         68.6480   42.3010   15.8880 C.2   142  GLN142      0.2260
     70  O         68.6820   41.1000   16.0720 O.2   142  GLN142     -0.2867
     71  CB        66.5310   43.3110   15.3020 C.3   142  GLN142      0.0367
     72  CG        65.4240   44.1960   15.8170 C.3   142  GLN142      0.0905
     73  CD        64.1290   44.0400   15.0730 C.2   142  GLN142      0.2608
     74  OE1       64.0620   43.6220   13.9170 O.2   142  GLN142     -0.2717
     75  NE2       63.0550   44.3450   15.7720 N.am  142  GLN142     -0.0878
     76  N         64.4820   55.8830   23.2110 N.3   155  ASN155     -0.1225
     77  CA        63.8980   55.4870   24.4750 C.3   155  ASN155      0.1785
     78  C         62.4120   55.1150   24.3150 C.2   155  ASN155      0.2597
     79  O         61.6460   55.1430   25.2770 O.2   155  ASN155     -0.2718
     80  CB        64.0950   56.6480   25.4450 C.3   155  ASN155      0.1169
     81  CG        63.3050   57.8760   24.9760 C.2   155  ASN155      0.2627
     82  OD1       63.3970   58.3000   23.8000 O.2   155  ASN155     -0.2716
     83  ND2       62.4630   58.4190   25.8560 N.am  155  ASN155     -0.0877
     84  N         61.9340   54.6970   23.1370 N.am  156  LYS156     -0.1966
     85  CA        60.5190   54.3410   22.9160 C.3   156  LYS156      0.1728
     86  C         60.2870   52.8790   23.2960 C.2   156  LYS156      0.2616
     87  O         60.2150   51.9740   22.4680 O.2   156  LYS156     -0.2715
     88  CB        60.1390   54.5490   21.4350 C.3   156  LYS156      0.0311
     89  CG        60.3550   55.9520   20.7750 C.3   156  LYS156      0.0038
     90  CD        61.1540   55.9280   19.4300 C.3   156  LYS156      0.0206
     91  CE        60.4430   55.0310   18.3850 C.3   156  LYS156      0.1093
     92  NZ        61.2590   54.6660   17.2370 N.3   156  LYS156     -0.1314
     93  N         60.3120   52.6350   24.5860 N.am  157  VAL157     -0.1963
     94  CA        60.2050   51.2900   25.0880 C.3   157  VAL157      0.1727
     95  C         58.9530   50.5680   24.6140 C.2   157  VAL157      0.2616
     96  O         57.8220   51.0700   24.5650 O.2   157  VAL157     -0.2715
     97  CB        60.2670   51.2200   26.6450 C.3   157  VAL157      0.0290
     98  CG1       61.5650   51.8600   27.0450 C.3   157  VAL157      0.0023
     99  CG2       59.1140   51.8780   27.3540 C.3   157  VAL157      0.0023
    100  N         59.2550   49.3230   24.2210 N.am  158  ASP158     -0.1957
    101  CA        58.2780   48.4310   23.6190 C.3   158  ASP158      0.1840
    102  C         58.4820   46.9390   23.9270 C.2   158  ASP158      0.2622
    103  O         57.7410   46.1060   23.4280 O.2   158  ASP158     -0.2715
    104  CB        58.3370   48.6870   22.1040 C.3   158  ASP158      0.1450
    105  CG        59.6110   48.2630   21.4050 C.2   158  ASP158      0.3671
    106  OD1       60.5840   47.8550   22.0250 O.co2 158  ASP158     -0.2456
    107  OD2       59.6230   48.3220   20.1850 O.co2 158  ASP158     -0.2456
    108  N         59.4780   46.5320   24.7160 N.am  159  HIS159     -0.1973
    109  CA        59.8480   45.1340   24.9000 C.3   159  HIS159      0.1656
    110  C         60.2020   44.9170   26.3500 C.2   159  HIS159      0.2291
    111  O         61.0220   45.6650   26.8630 O.2   159  HIS159     -0.2864
    112  CB        61.0260   44.8510   23.9980 C.3   159  HIS159      0.0771
    113  CG        61.3200   43.3780   23.8580 C.ar  159  HIS159      0.0820
    114  ND1       60.4540   42.4460   23.5250 N.ar  159  HIS159     -0.2267
    115  CD2       62.5210   42.7720   24.0960 C.ar  159  HIS159      0.1154
    116  CE1       61.0820   41.2890   23.5730 C.ar  159  HIS159      0.1986
    117  NE2       62.3140   41.5010   23.9130 N.ar  159  HIS159     -0.2212
    118  N         64.0310   35.6600   22.7520 N.3   177  TRP177     -0.1241
    119  CA        64.0760   35.4110   21.3420 C.3   177  TRP177      0.1605
    120  C         64.8900   34.1100   21.2870 C.2   177  TRP177      0.2264
    121  O         64.9810   33.4310   22.3140 O.2   177  TRP177     -0.2867
    122  CB        64.7460   36.6240   20.6630 C.3   177  TRP177      0.0550
    123  CG        63.8420   37.8700   20.6260 C.ar  177  TRP177      0.0003
    124  CD1       62.5250   37.8590   21.0490 C.ar  177  TRP177      0.0946
    125  CD2       64.2270   39.1300   20.1870 C.ar  177  TRP177      0.0152
    126  NE1       62.0840   39.0890   20.8840 N.ar  177  TRP177     -0.2442
    127  CE2       63.0650   39.8800   20.3770 C.ar  177  TRP177      0.0810
    128  CE3       65.3570   39.7490   19.6760 C.ar  177  TRP177      0.0012
    129  CZ2       63.0420   41.2400   20.0480 C.ar  177  TRP177      0.0191
    130  CZ3       65.3210   41.1060   19.3530 C.ar  177  TRP177      0.0001
    131  CH2       64.1720   41.8550   19.5330 C.ar  177  TRP177      0.0015
@<TRIPOS>BOND
     1    74    73    2
     2    73    75   am
     3    73    72    1
     4    71    72    1
     5    71    68    1
     6    65    64    2
     7    69    70    2
     8    69    68    1
     9    68    67    1
    10    64    63    1
    11    92    91    1
    12    66    63    1
    13    63    62    1
    14    91    90    1
    15    60    59    2
    16    62    59   am
    17    26    25    2
    18   130   131   ar
    19   130   128   ar
    20    59    58    1
    21    90    89    1
    22   131   129   ar
    23   128   125   ar
    24    55    54    2
    25   129   127   ar
    26    25    24    1
    27    25    27   am
    28   107   105   ar
    29   125   127   ar
    30   125   123   ar
    31    24    21    1
    32   127   126   ar
    33    54    56   am
    34    54    53    1
    35   123   122    1
    36   123   124   ar
    37   122   119    1
    38    89    88    1
    39   126   124   ar
    40    58    61    1
    41    58    57    1
    42    10    11    1
    43    53    52    1
    44    21    20    1
    45    21    22    1
    46     4     3    2
    47     3     2    1
    48   120   119    1
    49   120   121    2
    50   119   118    1
    51   105   106   ar
    52   105   104    1
    53    88    85    1
    54    57    50   am
    55    11    12    1
    56    51    50    2
    57   104   101    1
    58     6     7    1
    59     6     5    1
    60    50    49    1
    61     9     7   am
    62    22    23    2
    63    22    28   am
    64    87    86    2
    65    52    49    1
    66     1     2    1
    67     2     5    1
    68     7     8    2
    69    85    84    1
    70    85    86    1
    71    49    48    1
    72    84    78   am
    73    76    77    1
    74    86    93   am
    75    12    13    2
    76   103   102    2
    77   114   116   ar
    78   114   113   ar
    79   116   117   ar
    80    28    29    1
    81   101   102    1
    82   101   100    1
    83    82    81    2
    84   113   112    1
    85   113   115   ar
    86   117   115   ar
    87   102   108   am
    88   112   109    1
    89   100    95   am
    90    78    77    1
    91    78    79    2
    92    77    80    1
    93    96    95    2
    94    93    94    1
    95    95    94    1
    96    29    30    1
    97   108   109    1
    98    19    18    1
    99   109   110    1
   100    81    80    1
   101    81    83   am
   102    94    97    1
   103    18    15    1
   104    14    15    1
   105    30    31    2
   106    30    32   am
   107    15    16    1
   108   110   111    2
   109    97    98    1
   110    97    99    1
   111    32    33    1
   112    16    17    2
   113    33    34    1
   114    35    34    2
   115    34    36   am
   116    47    46    1
   117    44    46   ar
   118    44    42   ar
   119    46    45   ar
   120    36    37    1
   121    45    43   ar
   122    42    41   ar
   123    37    40    1
   124    37    38    1
   125    41    43   ar
   126    41    40    1
   127    38    39    2
