@<TRIPOS>MOLECULE
tmp/1pivB00.pdb
 211 204 0 0 0
SMALL
GASTEIGER

@<TRIPOS>ATOM
      1  N         30.0470   61.2670  119.2160 N.3    87  ILE87      -0.1231
      2  CA        29.2090   60.1680  118.7280 C.3    87  ILE87       0.1692
      3  C         29.7690   58.7710  119.0370 C.2    87  ILE87       0.2593
      4  O         30.8660   58.3720  118.6550 O.2    87  ILE87      -0.2718
      5  CB        28.9990   60.3650  117.2070 C.3    87  ILE87       0.0266
      6  CG1       28.2820   61.6900  117.0400 C.3    87  ILE87       0.0019
      7  CG2       28.1720   59.2510  116.5810 C.3    87  ILE87       0.0020
      8  CD1       28.4420   62.3220  115.6680 C.3    87  ILE87       0.0001
      9  N         28.9960   58.0430  119.8290 N.am   88  THR88      -0.1939
     10  CA        29.3650   56.6980  120.2110 C.3    88  THR88       0.2028
     11  C         28.2030   55.8030  120.6380 C.2    88  THR88       0.2642
     12  O         27.2030   56.2810  121.1660 O.2    88  THR88      -0.2714
     13  CB        30.3970   56.7570  121.3550 C.3    88  THR88       0.1808
     14  OG1       30.7360   55.4060  121.6500 O.3    88  THR88      -0.2208
     15  CG2       29.8850   57.4200  122.6180 C.3    88  THR88       0.0379
     16  N         28.2860   54.4830  120.4220 N.am   89  TYR89      -0.1959
     17  CA        27.3000   53.5850  121.0150 C.3    89  TYR89       0.1771
     18  C         27.6850   53.1310  122.4350 C.2    89  TYR89       0.2619
     19  O         27.0230   52.2960  123.0640 O.2    89  TYR89      -0.2715
     20  CB        27.1100   52.3590  120.1270 C.3    89  TYR89       0.0574
     21  CG        28.3360   51.5000  119.8760 C.ar   89  TYR89      -0.0198
     22  CD1       28.8170   50.6000  120.8460 C.ar   89  TYR89      -0.0009
     23  CD2       28.9710   51.5850  118.6380 C.ar   89  TYR89      -0.0009
     24  CE1       29.9380   49.8060  120.5940 C.ar   89  TYR89       0.0417
     25  CE2       30.0880   50.7830  118.3800 C.ar   89  TYR89       0.0417
     26  CZ        30.5790   49.9120  119.3520 C.ar   89  TYR89       0.1957
     27  OH        31.6900   49.1450  119.0820 O.3    89  TYR89      -0.2866
     28  N         28.7950   53.6650  122.9640 N.am   90  LYS90      -0.1977
     29  CA        29.3430   53.2510  124.2500 C.3    90  LYS90       0.1596
     30  C         29.0580   54.0110  125.5420 C.2    90  LYS90       0.2287
     31  O         29.6510   53.6940  126.5790 O.2    90  LYS90      -0.2864
     32  CB        30.8290   53.1260  124.0970 C.3    90  LYS90       0.0298
     33  CG        31.2630   51.9660  123.2430 C.3    90  LYS90       0.0038
     34  CD        32.7650   52.0120  123.2600 C.3    90  LYS90       0.0206
     35  CE        33.3710   50.8670  122.4930 C.3    90  LYS90       0.1093
     36  NZ        34.7730   51.1720  122.2980 N.3    90  LYS90      -0.1314
     37  N         27.1840   48.7970  108.2540 N.3   107  PHE107     -0.1241
     38  CA        25.7820   49.2230  108.1880 C.3   107  PHE107      0.1605
     39  C         25.5090   50.7090  107.9770 C.2   107  PHE107      0.2264
     40  O         26.3700   51.5680  108.2370 O.2   107  PHE107     -0.2867
     41  CB        25.0310   48.8180  109.4650 C.3   107  PHE107      0.0534
     42  CG        25.7230   49.1980  110.7570 C.ar  107  PHE107     -0.0203
     43  CD1       25.6750   50.5080  111.2370 C.ar  107  PHE107     -0.0042
     44  CD2       26.3910   48.2110  111.4920 C.ar  107  PHE107     -0.0042
     45  CE1       26.3200   50.8410  112.4300 C.ar  107  PHE107     -0.0003
     46  CE2       27.0370   48.5460  112.6790 C.ar  107  PHE107     -0.0003
     47  CZ        26.9970   49.8650  113.1590 C.ar  107  PHE107     -0.0000
     48  N         23.2570   53.9760  109.3030 N.3   109  MET109     -0.1245
     49  CA        22.7480   54.2880  110.6230 C.3   109  MET109      0.1570
     50  C         21.6430   55.3530  110.6820 C.2   109  MET109      0.2261
     51  O         21.7490   56.4840  110.2060 O.2   109  MET109     -0.2867
     52  CB        23.9430   54.7080  111.4810 C.3   109  MET109      0.0387
     53  CG        23.6790   55.0480  112.9480 C.3   109  MET109      0.0595
     54  SD        23.0810   53.6380  113.8910 S.3   109  MET109     -0.1393
     55  CE        24.6540   53.0710  114.4650 C.3   109  MET109      0.0692
     56  N         19.4060   57.8480  112.8690 N.3   111  PHE111     -0.1241
     57  CA        19.3180   58.6530  114.0910 C.3   111  PHE111      0.1605
     58  C         17.9580   59.2890  114.3460 C.2   111  PHE111      0.2264
     59  O         17.4830   60.1150  113.5520 O.2   111  PHE111     -0.2867
     60  CB        20.2900   59.8020  114.1060 C.3   111  PHE111      0.0534
     61  CG        21.7140   59.3990  114.3780 C.ar  111  PHE111     -0.0203
     62  CD1       22.5210   58.9080  113.3470 C.ar  111  PHE111     -0.0042
     63  CD2       22.2220   59.5400  115.6570 C.ar  111  PHE111     -0.0042
     64  CE1       23.8490   58.5590  113.6190 C.ar  111  PHE111     -0.0003
     65  CE2       23.5420   59.1830  115.9250 C.ar  111  PHE111     -0.0003
     66  CZ        24.3560   58.6900  114.9060 C.ar  111  PHE111     -0.0000
     67  N         15.7140   61.6260  117.0720 N.3   113  PHE113     -0.1241
     68  CA        15.8750   62.5200  118.2160 C.3   113  PHE113      0.1605
     69  C         14.6060   62.8790  118.9990 C.2   113  PHE113      0.2264
     70  O         13.7190   63.5890  118.5070 O.2   113  PHE113     -0.2867
     71  CB        16.4970   63.8190  117.7710 C.3   113  PHE113      0.0534
     72  CG        17.7690   63.6960  116.9700 C.ar  113  PHE113     -0.0203
     73  CD1       17.7020   63.5470  115.5770 C.ar  113  PHE113     -0.0042
     74  CD2       18.9930   63.7760  117.6150 C.ar  113  PHE113     -0.0042
     75  CE1       18.8880   63.4580  114.8360 C.ar  113  PHE113     -0.0003
     76  CE2       20.1680   63.6780  116.8640 C.ar  113  PHE113     -0.0003
     77  CZ        20.1210   63.5370  115.4800 C.ar  113  PHE113     -0.0000
     78  N         20.7090   71.0200  115.9590 N.3   134  ILE134     -0.1245
     79  CA        21.6230   69.9120  116.1580 C.3   134  ILE134      0.1561
     80  C         22.6040   69.9150  114.9890 C.2   134  ILE134      0.2260
     81  O         22.2660   69.5630  113.8510 O.2   134  ILE134     -0.2867
     82  CB        20.8380   68.5910  116.2310 C.3   134  ILE134      0.0252
     83  CG1       19.7380   68.6820  117.2810 C.3   134  ILE134      0.0019
     84  CG2       21.8140   67.4440  116.5610 C.3   134  ILE134      0.0019
     85  CD1       18.7880   67.4790  117.3120 C.3   134  ILE134      0.0001
     86  N         26.0950   68.6110  113.1790 N.3   136  TYR136     -0.1241
     87  CA        27.1500   67.6230  113.1390 C.3   136  TYR136      0.1605
     88  C         28.4740   68.3150  112.8410 C.2   136  TYR136      0.2264
     89  O         28.6140   69.0910  111.8980 O.2   136  TYR136     -0.2867
     90  CB        26.8960   66.5650  112.0680 C.3   136  TYR136      0.0534
     91  CG        28.0100   65.5280  111.9000 C.ar  136  TYR136     -0.0201
     92  CD1       28.6520   64.9500  113.0050 C.ar  136  TYR136     -0.0009
     93  CD2       28.4160   65.1840  110.6110 C.ar  136  TYR136     -0.0009
     94  CE1       29.6750   64.0180  112.8230 C.ar  136  TYR136      0.0417
     95  CE2       29.4340   64.2550  110.4290 C.ar  136  TYR136      0.0417
     96  CZ        30.0430   63.6720  111.5400 C.ar  136  TYR136      0.1957
     97  OH        31.0480   62.7500  111.3440 O.3   136  TYR136     -0.2866
     98  N         26.3240   69.2450  108.2410 N.2   158  PRO158     -0.2571
     99  CA        24.8900   68.9800  108.2560 C.3   158  PRO158      0.2026
    100  C         24.2280   69.4280  109.5750 C.2   158  PRO158      0.2684
    101  O         24.7130   69.1480  110.6730 O.2   158  PRO158     -0.2709
    102  CB        24.7350   67.5000  108.0510 C.2   158  PRO158      0.0085
    103  CG        26.1100   66.9040  107.9800 C.2   158  PRO158      0.0180
    104  CD        27.1160   68.0340  108.1120 C.2   158  PRO158      0.0938
    105  N         23.1330   70.1550  109.5210 N.am  159  SER159     -0.1931
    106  CA        22.3860   70.5050  110.7340 C.3   159  SER159      0.2055
    107  C         20.8670   70.2670  110.7460 C.2   159  SER159      0.2642
    108  O         20.2010   70.4530  109.7240 O.2   159  SER159     -0.2714
    109  CB        22.5560   71.9780  111.0790 C.3   159  SER159      0.2130
    110  OG        23.8070   72.3530  111.6280 O.3   159  SER159     -0.2179
    111  N         20.2900   69.8230  111.8470 N.am  160  ILE160     -0.1977
    112  CA        18.8310   69.7080  112.0020 C.3   160  ILE160      0.1596
    113  C         18.2530   70.8770  112.8150 C.2   160  ILE160      0.2287
    114  O         18.7220   71.2200  113.9060 O.2   160  ILE160     -0.2864
    115  CB        18.3670   68.4050  112.7470 C.3   160  ILE160      0.0276
    116  CG1       18.7280   67.1600  111.9740 C.3   160  ILE160      0.0022
    117  CG2       16.8380   68.4170  112.9160 C.3   160  ILE160      0.0022
    118  CD1       17.9260   66.9580  110.6800 C.3   160  ILE160      0.0001
    119  N         17.0800   61.2690  110.8390 N.3   171  ILE171     -0.1245
    120  CA        17.9910   61.2440  109.6930 C.3   171  ILE171      0.1561
    121  C         18.7150   59.9230  109.5040 C.2   171  ILE171      0.2260
    122  O         18.8340   59.1020  110.4170 O.2   171  ILE171     -0.2867
    123  CB        19.0770   62.3550  109.7700 C.3   171  ILE171      0.0252
    124  CG1       19.7940   62.4050  111.1010 C.3   171  ILE171      0.0019
    125  CG2       18.4100   63.6760  109.5010 C.3   171  ILE171      0.0019
    126  CD1       21.2080   61.8100  111.0580 C.3   171  ILE171      0.0001
    127  N         22.3070   58.0150  107.9270 N.3   173  VAL173     -0.1245
    128  CA        23.7290   58.1730  107.6730 C.3   173  VAL173      0.1561
    129  C         24.2940   56.9490  106.9330 C.2   173  VAL173      0.2260
    130  O         23.8940   55.8110  107.2090 O.2   173  VAL173     -0.2867
    131  CB        24.3460   58.4280  109.0760 C.3   173  VAL173      0.0252
    132  CG1       25.8490   58.1970  109.1250 C.3   173  VAL173      0.0019
    133  CG2       24.1150   59.8930  109.4060 C.3   173  VAL173      0.0019
    134  N         30.1100   55.1000  107.0410 N.3   176  VAL176     -0.1245
    135  CA        31.1680   56.0980  106.9910 C.3   176  VAL176      0.1561
    136  C         32.5540   55.7220  107.5380 C.2   176  VAL176      0.2260
    137  O         33.4120   56.5820  107.7900 O.2   176  VAL176     -0.2867
    138  CB        30.6910   57.4020  107.6880 C.3   176  VAL176      0.0252
    139  CG1       29.5030   57.9750  106.9380 C.3   176  VAL176      0.0019
    140  CG2       30.3040   57.1220  109.1380 C.3   176  VAL176      0.0019
    141  N         33.4100   48.3810  110.2160 N.3   182  TYR182     -0.1227
    142  CA        33.6670   48.9120  111.5580 C.3   182  TYR182      0.1736
    143  C         34.2990   47.8740  112.5140 C.2   182  TYR182      0.2596
    144  O         33.8460   46.7230  112.6280 O.2   182  TYR182     -0.2718
    145  CB        32.3840   49.3870  112.2640 C.3   182  TYR182      0.0548
    146  CG        31.6160   50.5530  111.6600 C.ar  182  TYR182     -0.0200
    147  CD1       32.2600   51.7460  111.3250 C.ar  182  TYR182     -0.0009
    148  CD2       30.2510   50.4200  111.4530 C.ar  182  TYR182     -0.0009
    149  CE1       31.5320   52.7960  110.7830 C.ar  182  TYR182      0.0417
    150  CE2       29.5210   51.4680  110.9050 C.ar  182  TYR182      0.0417
    151  CZ        30.1670   52.6440  110.5670 C.ar  182  TYR182      0.1957
    152  OH        29.4570   53.6600  109.9370 O.3   182  TYR182     -0.2866
    153  N         35.3450   48.2750  113.2140 N.am  183  SER183     -0.1938
    154  CA        35.9990   47.3920  114.1700 C.3   183  SER183      0.2055
    155  C         35.4230   47.5180  115.5610 C.2   183  SER183      0.2643
    156  O         35.7330   48.4600  116.2820 O.2   183  SER183     -0.2714
    157  CB        37.4940   47.6760  114.2940 C.3   183  SER183      0.2130
    158  OG        38.1760   47.5040  113.0580 O.3   183  SER183     -0.2179
    159  N         34.5670   46.5960  116.0140 N.am  184  HIS184     -0.1973
    160  CA        34.0780   46.6610  117.3880 C.3   184  HIS184      0.1656
    161  C         35.1830   46.3790  118.4130 C.2   184  HIS184      0.2291
    162  O         35.0460   46.6570  119.6010 O.2   184  HIS184     -0.2864
    163  CB        32.9740   45.6580  117.6550 C.3   184  HIS184      0.0771
    164  CG        31.7380   45.8110  116.8010 C.ar  184  HIS184      0.0820
    165  ND1       30.7620   44.9400  116.6400 N.ar  184  HIS184     -0.2267
    166  CD2       31.4350   46.9160  116.0350 C.ar  184  HIS184      0.1154
    167  CE1       29.8870   45.4570  115.8210 C.ar  184  HIS184      0.1986
    168  NE2       30.3110   46.6460  115.4570 N.ar  184  HIS184     -0.2212
    169  N         41.6970   53.7660  118.4020 N.3   210  MET210     -0.1245
    170  CA        42.1310   54.0020  117.0280 C.3   210  MET210      0.1570
    171  C         42.3050   55.4870  116.7520 C.2   210  MET210      0.2261
    172  O         43.2710   56.0970  117.2010 O.2   210  MET210     -0.2867
    173  CB        41.0980   53.3900  116.0710 C.3   210  MET210      0.0387
    174  CG        40.9070   51.8990  116.2490 C.3   210  MET210      0.0595
    175  SD        39.8680   51.1080  115.0150 S.3   210  MET210     -0.1393
    176  CE        38.3750   51.1330  115.9660 C.3   210  MET210      0.0692
    177  N         37.2970   59.5810  116.5810 N.3   214  ASP214     -0.1225
    178  CA        36.4490   58.6580  115.8380 C.3   214  ASP214      0.1805
    179  C         35.4360   59.2310  114.8350 C.2   214  ASP214      0.2597
    180  O         35.8030   59.4480  113.6780 O.2   214  ASP214     -0.2718
    181  CB        35.7410   57.7490  116.8360 C.3   214  ASP214      0.1424
    182  CG        36.4960   56.4510  117.1080 C.2   214  ASP214      0.3668
    183  OD1       37.0530   55.8480  116.1760 O.co2 214  ASP214     -0.2456
    184  OD2       36.5130   56.0170  118.2640 O.co2 214  ASP214     -0.2456
    185  N         34.2030   59.5730  115.1910 N.am  215  PHE215     -0.1976
    186  CA        33.2130   60.0930  114.2470 C.3   215  PHE215      0.1639
    187  C         32.8380   61.5640  114.4550 C.2   215  PHE215      0.2290
    188  O         31.8480   62.0530  113.9220 O.2   215  PHE215     -0.2864
    189  CB        31.9460   59.2780  114.3360 C.3   215  PHE215      0.0560
    190  CG        32.2310   57.8110  114.1400 C.ar  215  PHE215     -0.0200
    191  CD1       32.4300   57.2810  112.8590 C.ar  215  PHE215     -0.0042
    192  CD2       32.3330   57.0060  115.2600 C.ar  215  PHE215     -0.0042
    193  CE1       32.7460   55.9320  112.7110 C.ar  215  PHE215     -0.0003
    194  CE2       32.6650   55.6680  115.0990 C.ar  215  PHE215     -0.0003
    195  CZ        32.8740   55.1290  113.8320 C.ar  215  PHE215     -0.0000
    196  N         28.2400   65.9190  118.0160 N.3   218  LEU218     -0.1245
    197  CA        26.9900   66.6110  117.7870 C.3   218  LEU218      0.1561
    198  C         26.8860   67.8120  118.7140 C.2   218  LEU218      0.2260
    199  O         26.9590   67.6940  119.9460 O.2   218  LEU218     -0.2867
    200  CB        25.7880   65.7060  118.0450 C.3   218  LEU218      0.0270
    201  CG        25.5300   64.5550  117.1100 C.3   218  LEU218      0.0019
    202  CD1       24.2020   63.9310  117.4720 C.3   218  LEU218      0.0001
    203  CD2       25.5060   65.0400  115.6670 C.3   218  LEU218      0.0001
    204  N         19.4980   55.3230  118.2640 N.3   239  MET239     -0.1245
    205  CA        20.3080   54.8350  117.1890 C.3   239  MET239      0.1570
    206  C         19.8600   53.4790  116.6680 C.2   239  MET239      0.2261
    207  O         19.6140   52.5700  117.4590 O.2   239  MET239     -0.2867
    208  CB        21.6880   54.8430  117.7870 C.3   239  MET239      0.0387
    209  CG        22.8540   54.7010  116.8720 C.3   239  MET239      0.0595
    210  SD        24.4020   54.5590  117.7910 S.3   239  MET239     -0.1393
    211  CE        24.8860   56.2640  117.8240 C.3   239  MET239      0.0692
@<TRIPOS>BOND
     1   129   130    2
     2   129   128    1
     3   139   138    1
     4   135   134    1
     5   135   136    1
     6   135   138    1
     7   136   137    2
     8   128   127    1
     9   128   131    1
    10   138   140    1
    11    39    38    1
    12    39    40    2
    13   103   102    2
    14   103   104    1
    15   102    99    1
    16   104    98    2
    17    38    37    1
    18    38    41    1
    19    98    99    1
    20    99   100    1
    21   131   132    1
    22   131   133    1
    23    48    49    1
    24    41    42    1
    25   125   123    1
    26   121   120    1
    27   121   122    2
    28   105   100   am
    29   105   106    1
    30   100   101    2
    31   120   123    1
    32   120   119    1
    33   108   107    2
    34   123   124    1
    35   152   151    1
    36    51    50    2
    37   141   142    1
    38    95    93   ar
    39    95    96   ar
    40   151   149   ar
    41   151   150   ar
    42    93    91   ar
    43    49    50    1
    44    49    52    1
    45   118   116    1
    46   106   107    1
    47   106   109    1
    48   107   111   am
    49    42    43   ar
    50    42    44   ar
    51   149   147   ar
    52   150   148   ar
    53   126   124    1
    54   109   110    1
    55    43    45   ar
    56   147   146   ar
    57    97    96    1
    58   148   146   ar
    59    52    53    1
    60    44    46   ar
    61    96    94   ar
    62   142   145    1
    63   142   143    1
    64   146   145    1
    65   111   112    1
    66    89    88    2
    67    91    90    1
    68    91    92   ar
    69   116   115    1
    70   112   115    1
    71   112   113    1
    72    90    87    1
    73    45    47   ar
    74   143   144    2
    75   143   153   am
    76    46    47   ar
    77   193   191   ar
    78   193   195   ar
    79   115   117    1
    80   113   114    2
    81    94    92   ar
    82    88    87    1
    83   191   190   ar
    84    56    57    1
    85    53    54    1
    86   158   157    1
    87    87    86    1
    88   153   154    1
    89    62    64   ar
    90    62    61   ar
    91    59    58    2
    92    64    66   ar
    93   180   179    2
    94   195   194   ar
    95    81    80    2
    96    54    55    1
    97   188   187    2
    98    57    60    1
    99    57    58    1
   100    60    61    1
   101   190   189    1
   102   190   192   ar
   103   154   157    1
   104   154   155    1
   105   186   189    1
   106   186   187    1
   107   186   185    1
   108    61    63   ar
   109   179   185   am
   110   179   178    1
   111    75    77   ar
   112    75    73   ar
   113    66    65   ar
   114    80    79    1
   115   175   176    1
   116   175   174    1
   117   194   192   ar
   118   168   167   ar
   119   168   166   ar
   120    77    76   ar
   121   155   159   am
   122   155   156    2
   123    73    72   ar
   124    63    65   ar
   125   203   201    1
   126     8     6    1
   127   167   165   ar
   128   178   177    1
   129   178   181    1
   130    78    79    1
   131   159   160    1
   132   166   164   ar
   133   173   174    1
   134   173   170    1
   135    79    82    1
   136   183   182   ar
   137    82    84    1
   138    82    83    1
   139     7     5    1
   140   165   164   ar
   141   206   205    1
   142   206   207    2
   143   171   170    1
   144   171   172    2
   145   164   163    1
   146   181   182    1
   147    76    74   ar
   148   209   208    1
   149   209   210    1
   150    72    74   ar
   151    72    71    1
   152   170   169    1
   153     6     5    1
   154    67    68    1
   155   182   184   ar
   156   201   202    1
   157   201   200    1
   158   205   208    1
   159   205   204    1
   160     5     2    1
   161    83    85    1
   162   160   163    1
   163   160   161    1
   164    71    68    1
   165   197   196    1
   166   197   200    1
   167   197   198    1
   168   210   211    1
   169    68    69    1
   170    25    23   ar
   171    25    26   ar
   172   161   162    2
   173    70    69    2
   174    23    21   ar
   175     4     3    2
   176   198   199    2
   177     2     3    1
   178     2     1    1
   179     3     9   am
   180    27    26    1
   181    26    24   ar
   182     9    10    1
   183    21    20    1
   184    21    22   ar
   185    20    17    1
   186    10    11    1
   187    10    13    1
   188    16    11   am
   189    16    17    1
   190    24    22   ar
   191    11    12    2
   192    17    18    1
   193    13    14    1
   194    13    15    1
   195    36    35    1
   196    18    28   am
   197    18    19    2
   198    35    34    1
   199    28    29    1
   200    33    34    1
   201    33    32    1
   202    32    29    1
   203    29    30    1
   204    30    31    2
