@<TRIPOS>MOLECULE
tmp/1pj3D02.pdb
 148 142 0 0 0
SMALL
GASTEIGER

@<TRIPOS>ATOM
      1  N         33.7480   -4.4120   18.5450 N.3   127  ASN127     -0.1225
      2  CA        32.5250   -4.0780   19.2700 C.3   127  ASN127      0.1785
      3  C         31.2250   -3.9280   18.4930 C.2   127  ASN127      0.2597
      4  O         30.1560   -3.9320   19.1040 O.2   127  ASN127     -0.2718
      5  CB        32.7390   -2.7940   20.0780 C.3   127  ASN127      0.1169
      6  CG        33.8700   -2.9160   21.0700 C.2   127  ASN127      0.2627
      7  OD1       33.8740   -3.8150   21.9100 O.2   127  ASN127     -0.2716
      8  ND2       34.8400   -2.0090   20.9840 N.am  127  ASN127     -0.0877
      9  N         31.2880   -3.7890   17.1730 N.am  128  HIS128     -0.1975
     10  CA        30.0540   -3.6140   16.4180 C.3   128  HIS128      0.1656
     11  C         29.8780   -4.5920   15.2570 C.2   128  HIS128      0.2291
     12  O         29.8020   -4.1810   14.0980 O.2   128  HIS128     -0.2864
     13  CB        29.9590   -2.1650   15.9150 C.3   128  HIS128      0.0771
     14  CG        28.6040   -1.7980   15.3910 C.ar  128  HIS128      0.0820
     15  ND1       27.4540   -1.9340   16.1410 N.ar  128  HIS128     -0.2267
     16  CD2       28.2120   -1.3220   14.1850 C.ar  128  HIS128      0.1154
     17  CE1       26.4130   -1.5600   15.4190 C.ar  128  HIS128      0.1986
     18  NE2       26.8440   -1.1840   14.2290 N.ar  128  HIS128     -0.2212
     19  N         28.1490   -6.9060   12.6170 N.3   130  LYS130     -0.1245
     20  CA        26.8830   -6.8450   11.8990 C.3   130  LYS130      0.1561
     21  C         26.6200   -8.1340   11.1260 C.2   130  LYS130      0.2260
     22  O         25.4770   -8.4150   10.7660 O.2   130  LYS130     -0.2867
     23  CB        26.9000   -5.6760   10.9150 C.3   130  LYS130      0.0271
     24  CG        26.8800   -4.3070   11.5710 C.3   130  LYS130      0.0035
     25  CD        25.4640   -3.7650   11.6870 C.3   130  LYS130      0.0206
     26  CE        24.5750   -4.6490   12.5430 C.3   130  LYS130      0.1093
     27  NZ        23.1490   -4.2350   12.4800 N.3   130  LYS130     -0.1314
     28  N         31.4020   -4.7560   -0.3230 N.3   165  GLY165     -0.1210
     29  CA        31.9000   -3.6250    0.4340 C.3   165  GLY165      0.1956
     30  C         31.4110   -3.5980    1.8710 C.2   165  GLY165      0.2612
     31  O         31.2660   -2.5370    2.4690 O.2   165  GLY165     -0.2717
     32  N         31.1280   -4.7660    2.4310 N.am  166  ILE166     -0.1965
     33  CA        30.6920   -4.8240    3.8150 C.3   166  ILE166      0.1727
     34  C         31.9640   -4.6440    4.6500 C.2   166  ILE166      0.2616
     35  O         33.0020   -5.2110    4.3160 O.2   166  ILE166     -0.2715
     36  CB        30.0000   -6.1670    4.1010 C.3   166  ILE166      0.0290
     37  CG1       28.6590   -6.1980    3.3520 C.3   166  ILE166      0.0022
     38  CG2       29.8010   -6.3630    5.5960 C.3   166  ILE166      0.0023
     39  CD1       27.8970   -7.4950    3.4770 C.3   166  ILE166      0.0001
     40  N         31.8900   -3.8340    5.7000 N.am  167  ARG167     -0.1977
     41  CA        33.0520   -3.5700    6.5500 C.3   167  ARG167      0.1597
     42  C         33.6470   -4.8270    7.1700 C.2   167  ARG167      0.2287
     43  O         32.9430   -5.5780    7.8410 O.2   167  ARG167     -0.2864
     44  CB        32.6760   -2.6040    7.6700 C.3   167  ARG167      0.0334
     45  CG        32.1890   -1.2600    7.1930 C.3   167  ARG167      0.0492
     46  CD        31.5480   -0.4850    8.3380 C.3   167  ARG167      0.2205
     47  NE        32.4350   -0.3950    9.4920 N.pl3 167  ARG167     -0.0865
     48  CZ        33.6520    0.1300    9.4490 C.cat 167  ARG167      0.5346
     49  NH1       34.1230    0.6090    8.3080 N.pl3 167  ARG167      0.1354
     50  NH2       34.3930    0.1830   10.5460 N.pl3 167  ARG167      0.1354
     51  N         33.3880   -5.6190   10.9110 N.3   170  ARG170     -0.1245
     52  CA        32.0480   -5.9130   11.3940 C.3   170  ARG170      0.1563
     53  C         31.5920   -7.3160   11.0080 C.2   170  ARG170      0.2260
     54  O         30.4230   -7.6610   11.1930 O.2   170  ARG170     -0.2867
     55  CB        31.0700   -4.8510   10.8910 C.3   170  ARG170      0.0307
     56  CG        31.4390   -3.4750   11.4200 C.3   170  ARG170      0.0489
     57  CD        30.3700   -2.4510   11.1720 C.3   170  ARG170      0.2205
     58  NE        30.7390   -1.1680   11.7550 N.pl3 170  ARG170     -0.0865
     59  CZ        30.0320   -0.0530   11.6120 C.cat 170  ARG170      0.5346
     60  NH1       28.9070   -0.0590   10.9030 N.pl3 170  ARG170      0.1354
     61  NH2       30.4600    1.0750   12.1660 N.pl3 170  ARG170      0.1354
     62  N         24.4050   -7.2790    2.3230 N.3   443  LEU443     -0.1245
     63  CA        24.5670   -5.8310    2.3990 C.3   443  LEU443      0.1561
     64  C         23.2150   -5.1550    2.5640 C.2   443  LEU443      0.2260
     65  O         23.0740   -4.2460    3.3860 O.2   443  LEU443     -0.2867
     66  CB        25.2540   -5.2750    1.1450 C.3   443  LEU443      0.0270
     67  CG        25.4560   -3.7510    1.1680 C.3   443  LEU443      0.0019
     68  CD1       26.3500   -3.3690    2.3550 C.3   443  LEU443      0.0001
     69  CD2       26.0840   -3.2720   -0.1300 C.3   443  LEU443      0.0001
     70  N         21.7110   -5.9220    6.0790 N.3   446  ILE446     -0.1231
     71  CA        22.4410   -5.1600    7.0890 C.3   446  ILE446      0.1692
     72  C         22.0450   -3.6780    7.0340 C.2   446  ILE446      0.2591
     73  O         21.7150   -3.0880    8.0580 O.2   446  ILE446     -0.2718
     74  CB        23.9710   -5.2540    6.8700 C.3   446  ILE446      0.0266
     75  CG1       24.4320   -6.7170    6.9200 C.3   446  ILE446      0.0019
     76  CG2       24.7000   -4.4090    7.9130 C.3   446  ILE446      0.0020
     77  CD1       24.2580   -7.3800    8.2530 C.3   446  ILE446      0.0001
     78  N         22.0830   -3.0950    5.8400 N.am  447  LEU447     -0.1980
     79  CA        21.7490   -1.6830    5.6450 C.3   447  LEU447      0.1596
     80  C         20.3230   -1.2900    6.0070 C.2   447  LEU447      0.2287
     81  O         20.0940   -0.1670    6.4530 O.2   447  LEU447     -0.2864
     82  CB        22.0080   -1.2680    4.1920 C.3   447  LEU447      0.0297
     83  CG        23.4550   -1.2490    3.7070 C.3   447  LEU447      0.0022
     84  CD1       23.5240   -0.6340    2.3220 C.3   447  LEU447      0.0001
     85  CD2       24.2970   -0.4380    4.6630 C.3   447  LEU447      0.0001
     86  N         18.5150   -2.7810    8.3100 N.3   449  ASN449     -0.1240
     87  CA        18.2020   -3.1890    9.6730 C.3   449  ASN449      0.1653
     88  C         17.0520   -4.1950    9.6570 C.2   449  ASN449      0.2266
     89  O         16.2020   -4.1810   10.5460 O.2   449  ASN449     -0.2867
     90  CB        17.8170   -1.9750   10.5260 C.3   449  ASN449      0.1155
     91  CG        18.9920   -1.0460   10.7910 C.2   449  ASN449      0.2627
     92  OD1       18.8100    0.1550   10.9780 O.2   449  ASN449     -0.2716
     93  ND2       20.2030   -1.6010   10.8230 N.am  449  ASN449     -0.0877
     94  N         15.3860    0.6140    9.0700 N.3   508  ARG508     -0.1245
     95  CA        16.3490    1.7110    9.1060 C.3   508  ARG508      0.1563
     96  C         15.5720    2.9830    8.7840 C.2   508  ARG508      0.2260
     97  O         14.9660    3.0780    7.7190 O.2   508  ARG508     -0.2867
     98  CB        17.4580    1.4860    8.0660 C.3   508  ARG508      0.0307
     99  CG        18.6480    2.4560    8.1300 C.3   508  ARG508      0.0489
    100  CD        18.3390    3.8480    7.5750 C.3   508  ARG508      0.2205
    101  NE        19.5580    4.6470    7.4500 N.pl3 508  ARG508     -0.0865
    102  CZ        19.6030    5.9180    7.0570 C.cat 508  ARG508      0.5346
    103  NH1       18.4890    6.5650    6.7450 N.pl3 508  ARG508      0.1354
    104  NH2       20.7700    6.5440    6.9630 N.pl3 508  ARG508      0.1354
    105  N         21.9890    5.6220   -1.4040 N.3   518  TYR518     -0.1241
    106  CA        22.0740    5.1230   -0.0360 C.3   518  TYR518      0.1605
    107  C         23.0940    3.9970    0.0970 C.2   518  TYR518      0.2264
    108  O         24.0050    4.0710    0.9260 O.2   518  TYR518     -0.2867
    109  CB        20.7030    4.6090    0.4040 C.3   518  TYR518      0.0534
    110  CG        20.6750    4.0170    1.7920 C.ar  518  TYR518     -0.0201
    111  CD1       20.8920    4.8140    2.9130 C.ar  518  TYR518     -0.0009
    112  CD2       20.4210    2.6610    1.9870 C.ar  518  TYR518     -0.0009
    113  CE1       20.8550    4.2780    4.1970 C.ar  518  TYR518      0.0417
    114  CE2       20.3810    2.1140    3.2680 C.ar  518  TYR518      0.0417
    115  CZ        20.6000    2.9310    4.3670 C.ar  518  TYR518      0.1957
    116  OH        20.5620    2.4070    5.6380 O.3   518  TYR518     -0.2866
    117  N         27.5720    3.8190    1.4380 N.3   522  ARG522     -0.1231
    118  CA        27.9790    3.0640    2.6080 C.3   522  ARG522      0.1694
    119  C         28.8760    1.8600    2.3800 C.2   522  ARG522      0.2593
    120  O         29.1730    1.1280    3.3200 O.2   522  ARG522     -0.2718
    121  CB        26.7220    2.6740    3.3830 C.3   522  ARG522      0.0321
    122  CG        25.9520    3.9090    3.8030 C.3   522  ARG522      0.0489
    123  CD        24.6510    3.6200    4.5060 C.3   522  ARG522      0.2205
    124  NE        24.1000    4.8590    5.0460 N.pl3 522  ARG522     -0.0865
    125  CZ        23.7670    5.9190    4.3130 C.cat 522  ARG522      0.5346
    126  NH1       23.9150    5.8980    2.9980 N.pl3 522  ARG522      0.1354
    127  NH2       23.3120    7.0150    4.9030 N.pl3 522  ARG522      0.1354
    128  N         29.3250    1.6650    1.1480 N.am  523  THR523     -0.1939
    129  CA        30.2070    0.5500    0.8600 C.3   523  THR523      0.2028
    130  C         31.6210    0.8610    1.3470 C.2   523  THR523      0.2642
    131  O         32.1390    1.9520    1.1010 O.2   523  THR523     -0.2714
    132  CB        30.2480    0.2480   -0.6450 C.3   523  THR523      0.1808
    133  OG1       30.5300    1.4540   -1.3640 O.3   523  THR523     -0.2208
    134  CG2       28.9160   -0.3170   -1.1040 C.3   523  THR523      0.0379
    135  N         32.2180   -0.0960    2.0520 N.am  524  TRP524     -0.1973
    136  CA        33.5730    0.0330    2.5690 C.3   524  TRP524      0.1640
    137  C         34.5260    0.0560    1.3740 C.2   524  TRP524      0.2290
    138  O         34.3240   -0.6840    0.4140 O.2   524  TRP524     -0.2864
    139  CB        33.8900   -1.1650    3.4730 C.3   524  TRP524      0.0576
    140  CG        35.2400   -1.1230    4.1060 C.ar  524  TRP524      0.0006
    141  CD1       35.5910   -0.4630    5.2490 C.ar  524  TRP524      0.0946
    142  CD2       36.4310   -1.7570    3.6250 C.ar  524  TRP524      0.0152
    143  NE1       36.9260   -0.6490    5.5090 N.ar  524  TRP524     -0.2442
    144  CE2       37.4670   -1.4390    4.5290 C.ar  524  TRP524      0.0810
    145  CE3       36.7250   -2.5640    2.5150 C.ar  524  TRP524      0.0012
    146  CZ2       38.7790   -1.9010    4.3600 C.ar  524  TRP524      0.0191
    147  CZ3       38.0340   -3.0230    2.3450 C.ar  524  TRP524      0.0001
    148  CH2       39.0420   -2.6890    3.2660 C.ar  524  TRP524      0.0015
@<TRIPOS>BOND
     1   105   106    1
     2   133   132    1
     3   134   132    1
     4   132   129    1
     5    28    29    1
     6    69    67    1
     7   106   107    1
     8   106   109    1
     9   107   108    2
    10   109   110    1
    11   138   137    2
    12    29    30    1
    13   129   128    1
    14   129   130    1
    15   131   130    2
    16    66    67    1
    17    66    63    1
    18   128   119   am
    19    67    68    1
    20   130   135   am
    21   137   136    1
    22   117   118    1
    23   110   112   ar
    24   110   111   ar
    25    30    32   am
    26    30    31    2
    27   112   114   ar
    28   135   136    1
    29    84    83    1
    30    62    63    1
    31   147   145   ar
    32   147   148   ar
    33   119   118    1
    34   119   120    2
    35    63    64    1
    36    32    33    1
    37   145   142   ar
    38    64    65    2
    39   136   139    1
    40   118   121    1
    41   111   113   ar
    42   126   125    1
    43   148   146   ar
    44   114   115   ar
    45    37    39    1
    46    37    36    1
    47   121   122    1
    48   139   140    1
    49   142   140   ar
    50   142   144   ar
    51    83    82    1
    52    83    85    1
    53   122   123    1
    54    33    36    1
    55    33    34    1
    56    36    38    1
    57   140   141   ar
    58    82    79    1
    59   113   115   ar
    60   125   127    1
    61   125   124    2
    62    35    34    2
    63   146   144   ar
    64   115   116    1
    65   123   124    1
    66   144   143   ar
    67    34    40   am
    68   141   143   ar
    69    79    78    1
    70    79    80    1
    71    40    41    1
    72    78    72   am
    73    80    81    2
    74    70    71    1
    75    41    42    1
    76    41    44    1
    77   103   102    1
    78    74    75    1
    79    74    71    1
    80    74    76    1
    81    75    77    1
    82   104   102    1
    83    72    71    1
    84    72    73    2
    85   102   101    2
    86    42    43    2
    87    45    44    1
    88    45    46    1
    89   101   100    1
    90   100    99    1
    91    97    96    2
    92    98    99    1
    93    98    95    1
    94    49    48    1
    95    86    87    1
    96    46    47    1
    97    96    95    1
    98    94    95    1
    99    48    47    2
   100    48    50    1
   101    88    87    1
   102    88    89    2
   103    87    90    1
   104    90    91    1
   105    22    21    2
   106    91    93   am
   107    91    92    2
   108    55    52    1
   109    55    56    1
   110    60    59    1
   111    51    52    1
   112    23    24    1
   113    23    20    1
   114    53    54    2
   115    53    52    1
   116    21    20    1
   117    57    56    1
   118    57    58    1
   119    24    25    1
   120    59    58    2
   121    59    61    1
   122    25    26    1
   123    20    19    1
   124    27    26    1
   125    12    11    2
   126    16    18   ar
   127    16    14   ar
   128    18    17   ar
   129    11    10    1
   130    14    13    1
   131    14    15   ar
   132    17    15   ar
   133    13    10    1
   134    10     9    1
   135     9     3   am
   136     3     4    2
   137     3     2    1
   138     1     2    1
   139     2     5    1
   140     5     6    1
   141     8     6   am
   142     6     7    2
