@<TRIPOS>MOLECULE
tmp/1pj4A00.pdb
 119 109 0 0 0
SMALL
GASTEIGER

@<TRIPOS>ATOM
      1  N         22.8590   18.1770   44.1940 N.3    85  TYR85      -0.1227
      2  CA        21.9140   18.8120   43.2790 C.3    85  TYR85       0.1736
      3  C         21.5370   20.1970   43.8280 C.2    85  TYR85       0.2596
      4  O         22.3180   20.8030   44.5780 O.2    85  TYR85      -0.2718
      5  CB        20.6900   17.9010   43.1430 C.3    85  TYR85       0.0548
      6  CG        19.7080   18.2410   42.0440 C.ar   85  TYR85      -0.0200
      7  CD1       20.1270   18.4140   40.7230 C.ar   85  TYR85      -0.0009
      8  CD2       18.3420   18.3230   42.3160 C.ar   85  TYR85      -0.0009
      9  CE1       19.2010   18.6590   39.6980 C.ar   85  TYR85       0.0417
     10  CE2       17.4130   18.5660   41.3010 C.ar   85  TYR85       0.0417
     11  CZ        17.8510   18.7320   39.9960 C.ar   85  TYR85       0.1957
     12  OH        16.9310   18.9690   39.0040 O.3    85  TYR85      -0.2866
     13  N         20.3590   20.7050   43.4760 N.am   86  THR86      -0.1953
     14  CA        19.9490   22.0310   43.9490 C.3    86  THR86       0.1897
     15  C         19.7770   22.0100   45.4690 C.2    86  THR86       0.2313
     16  O         19.2460   21.0510   46.0210 O.2    86  THR86      -0.2863
     17  CB        18.6290   22.4960   43.2410 C.3    86  THR86       0.1794
     18  OG1       18.2800   23.8120   43.6800 O.3    86  THR86      -0.2208
     19  CG2       17.4800   21.5650   43.5670 C.3    86  THR86       0.0378
     20  N         21.5460   29.9270   30.8690 N.3   138  ARG138     -0.1245
     21  CA        20.4850   30.0480   31.8660 C.3   138  ARG138      0.1563
     22  C         20.6480   28.9260   32.8870 C.2   138  ARG138      0.2260
     23  O         19.8760   27.9620   32.8780 O.2   138  ARG138     -0.2867
     24  CB        19.1080   29.9300   31.1840 C.3   138  ARG138      0.0307
     25  CG        17.8980   30.3720   32.0340 C.3   138  ARG138      0.0489
     26  CD        16.8100   29.2910   32.1120 C.3   138  ARG138      0.2205
     27  NE        17.3480   28.1110   32.7820 N.pl3 138  ARG138     -0.0865
     28  CZ        16.7190   27.4070   33.7140 C.cat 138  ARG138      0.5346
     29  NH1       15.5020   27.7450   34.1040 N.pl3 138  ARG138      0.1354
     30  NH2       17.3290   26.3770   34.2760 N.pl3 138  ARG138      0.1354
     31  N         20.0170   27.4750   36.1440 N.3   140  LEU140     -0.1245
     32  CA        19.0310   27.6410   37.2100 C.3   140  LEU140      0.1561
     33  C         18.5040   29.0610   37.0450 C.2   140  LEU140      0.2260
     34  O         18.1510   29.4570   35.9340 O.2   140  LEU140     -0.2867
     35  CB        19.6660   27.4670   38.5980 C.3   140  LEU140      0.0270
     36  CG        20.3110   26.1140   38.9400 C.3   140  LEU140      0.0019
     37  CD1       20.6900   26.1040   40.4140 C.3   140  LEU140      0.0001
     38  CD2       19.3550   24.9750   38.6540 C.3   140  LEU140      0.0001
     39  N         26.0700   21.5080   36.0060 N.3   151  ILE151     -0.1245
     40  CA        24.6680   21.1480   35.8730 C.3   151  ILE151      0.1561
     41  C         24.4570   19.8270   35.1310 C.2   151  ILE151      0.2260
     42  O         23.7590   18.9490   35.6240 O.2   151  ILE151     -0.2867
     43  CB        23.8790   22.2980   35.1850 C.3   151  ILE151      0.0252
     44  CG1       23.7720   23.4850   36.1480 C.3   151  ILE151      0.0019
     45  CG2       22.5060   21.8250   34.7590 C.3   151  ILE151      0.0019
     46  CD1       23.0550   23.1590   37.4570 C.3   151  ILE151      0.0001
     47  N         22.9120   16.4210   36.7010 N.3   155  LYS155     -0.1245
     48  CA        21.7330   15.7830   36.1300 C.3   155  LYS155      0.1561
     49  C         22.0010   14.3050   35.8540 C.2   155  LYS155      0.2260
     50  O         21.2170   13.4500   36.2400 O.2   155  LYS155     -0.2867
     51  CB        21.3290   16.4610   34.8170 C.3   155  LYS155      0.0271
     52  CG        20.8230   17.8810   34.9570 C.3   155  LYS155      0.0035
     53  CD        19.4880   17.9560   35.6720 C.3   155  LYS155      0.0206
     54  CE        19.0600   19.4160   35.7900 C.3   155  LYS155      0.1093
     55  NZ        17.6720   19.6090   36.3020 N.3   155  LYS155     -0.1314
     56  N         19.5810   21.2250   28.4640 N.3   225  GLU225     -0.1231
     57  CA        19.4420   21.7800   29.7990 C.3   225  GLU225      0.1699
     58  C         20.0040   23.1910   29.9150 C.2   225  GLU225      0.2592
     59  O         21.0810   23.4930   29.3950 O.2   225  GLU225     -0.2718
     60  CB        20.1550   20.8750   30.8050 C.3   225  GLU225      0.0402
     61  CG        19.8710   21.2210   32.2350 C.3   225  GLU225      0.1161
     62  CD        18.6050   20.5780   32.7360 C.2   225  GLU225      0.3649
     63  OE1       17.6860   21.3080   33.1520 O.co2 225  GLU225     -0.2457
     64  OE2       18.5310   19.3310   32.7180 O.co2 225  GLU225     -0.2457
     65  N         19.2560   24.0440   30.6010 N.am  226  ASP226     -0.1974
     66  CA        19.6520   25.4240   30.8480 C.3   226  ASP226      0.1709
     67  C         20.1590   26.2780   29.6670 C.2   226  ASP226      0.2293
     68  O         21.2240   26.9000   29.7320 O.2   226  ASP226     -0.2864
     69  CB        20.6540   25.4270   32.0030 C.3   226  ASP226      0.1436
     70  CG        20.0090   24.9800   33.3070 C.2   226  ASP226      0.3671
     71  OD1       18.8280   24.5920   33.2430 O.co2 226  ASP226     -0.2456
     72  OD2       20.6510   25.0130   34.3830 O.co2 226  ASP226     -0.2456
     73  N         13.8150   22.0630   30.8700 N.3   249  ASP249     -0.1239
     74  CA        13.2730   23.2750   31.4700 C.3   249  ASP249      0.1674
     75  C         11.9110   23.6620   30.9490 C.2   249  ASP249      0.2266
     76  O         11.1870   24.4250   31.5890 O.2   249  ASP249     -0.2867
     77  CB        14.2590   24.4150   31.2650 C.3   249  ASP249      0.1410
     78  CG        15.6100   24.0860   31.8360 C.2   249  ASP249      0.3668
     79  OD1       15.6810   23.8770   33.0600 O.co2 249  ASP249     -0.2456
     80  OD2       16.5850   24.0130   31.0680 O.co2 249  ASP249     -0.2456
     81  N         10.0250   20.3020   33.5700 N.3   253  THR253     -0.1218
     82  CA         9.4530   21.1570   34.5960 C.3   253  THR253      0.1862
     83  C          7.9400   21.2270   34.4250 C.2   253  THR253      0.2287
     84  O          7.1920   21.2520   35.4020 O.2   253  THR253     -0.2866
     85  CB        10.0390   22.5670   34.5100 C.3   253  THR253      0.1770
     86  OG1       11.4290   22.5130   34.8580 O.3   253  THR253     -0.2211
     87  CG2        9.2940   23.5170   35.4450 C.3   253  THR253      0.0375
     88  N          8.6560   27.8260   42.0050 N.3   385  LEU385     -0.1245
     89  CA         9.5740   26.9240   41.3190 C.3   385  LEU385      0.1561
     90  C         10.9800   27.3490   40.9170 C.2   385  LEU385      0.2260
     91  O         11.7500   26.5120   40.4540 O.2   385  LEU385     -0.2867
     92  CB         8.8580   26.3620   40.0870 C.3   385  LEU385      0.0270
     93  CG         7.4380   25.8750   40.3880 C.3   385  LEU385      0.0019
     94  CD1        6.8940   25.1100   39.1820 C.3   385  LEU385      0.0001
     95  CD2        7.4530   24.9940   41.6340 C.3   385  LEU385      0.0001
     96  N         14.9280   28.2310   41.0340 N.3   387  ASN387     -0.1240
     97  CA        16.0810   27.7120   41.7740 C.3   387  ASN387      0.1653
     98  C         17.3020   28.5780   41.4980 C.2   387  ASN387      0.2266
     99  O         17.3640   29.2520   40.4730 O.2   387  ASN387     -0.2867
    100  CB        16.3890   26.2710   41.3410 C.3   387  ASN387      0.1155
    101  CG        15.1870   25.3390   41.4870 C.2   387  ASN387      0.2627
    102  OD1       14.6890   25.1120   42.5900 O.2   387  ASN387     -0.2716
    103  ND2       14.7160   24.8000   40.3660 N.am  387  ASN387     -0.0877
    104  N         10.4140   19.7630   41.5030 N.3   432  ASN432     -0.1225
    105  CA        11.6470   19.8610   40.7340 C.3   432  ASN432      0.1785
    106  C         11.6200   18.7440   39.6960 C.2   432  ASN432      0.2597
    107  O         11.1560   17.6360   39.9980 O.2   432  ASN432     -0.2718
    108  CB        12.8320   19.7020   41.6760 C.3   432  ASN432      0.1169
    109  CG        14.1500   19.9920   41.0080 C.2   432  ASN432      0.2627
    110  OD1       14.6330   19.2120   40.1890 O.2   432  ASN432     -0.2716
    111  ND2       14.7440   21.1270   41.3540 N.am  432  ASN432     -0.0877
    112  N         12.1180   19.0130   38.4850 N.am  433  ASN433     -0.1974
    113  CA        12.0590   18.0010   37.4340 C.3   433  ASN433      0.1688
    114  C         12.8020   16.7040   37.7000 C.2   433  ASN433      0.2292
    115  O         12.6860   15.7580   36.9210 O.2   433  ASN433     -0.2864
    116  CB        12.4610   18.5650   36.0550 C.3   433  ASN433      0.1181
    117  CG        13.7350   19.3860   36.0910 C.2   433  ASN433      0.2629
    118  OD1       14.7000   19.0350   36.7690 O.2   433  ASN433     -0.2716
    119  ND2       13.7470   20.4870   35.3360 N.am  433  ASN433     -0.0877
@<TRIPOS>BOND
     1    56    57    1
     2    59    58    2
     3    67    68    2
     4    67    66    1
     5    57    58    1
     6    57    60    1
     7    58    65   am
     8    65    66    1
     9    60    61    1
    10    66    69    1
    11    20    21    1
    12    73    74    1
    13    75    74    1
    14    75    76    2
    15    80    78   ar
    16    24    21    1
    17    24    25    1
    18    77    74    1
    19    77    78    1
    20    78    79   ar
    21    21    22    1
    22    69    70    1
    23    25    26    1
    24    26    27    1
    25    61    62    1
    26    64    62   ar
    27    62    63   ar
    28    27    28    2
    29    23    22    2
    30    71    70   ar
    31    70    72   ar
    32    81    82    1
    33    28    29    1
    34    28    30    1
    35    83    82    1
    36    83    84    2
    37    85    82    1
    38    85    86    1
    39    85    87    1
    40    45    43    1
    41    51    52    1
    42    51    48    1
    43    52    53    1
    44    41    42    2
    45    41    40    1
    46    43    40    1
    47    43    44    1
    48   119   117   am
    49    53    54    1
    50    54    55    1
    51    49    48    1
    52    49    50    2
    53    40    39    1
    54    34    33    2
    55   116   117    1
    56   116   113    1
    57   117   118    2
    58    48    47    1
    59    31    32    1
    60    44    46    1
    61   115   114    2
    62    33    32    1
    63    32    35    1
    64   113   114    1
    65   113   112    1
    66   112   106   am
    67    35    36    1
    68    38    36    1
    69    36    37    1
    70    12    11    1
    71    94    93    1
    72   106   107    2
    73   106   105    1
    74     9    11   ar
    75     9     7   ar
    76    11    10   ar
    77    92    93    1
    78    92    89    1
    79   110   109    2
    80   103   101   am
    81    93    95    1
    82    91    90    2
    83    99    98    2
    84     7     6   ar
    85   105   104    1
    86   105   108    1
    87    90    89    1
    88   109   111   am
    89   109   108    1
    90    96    97    1
    91    10     8   ar
    92    89    88    1
    93   100   101    1
    94   100    97    1
    95   101   102    2
    96    98    97    1
    97     6     8   ar
    98     6     5    1
    99     5     2    1
   100    17    19    1
   101    17    18    1
   102    17    14    1
   103     2     3    1
   104     2     1    1
   105    13     3   am
   106    13    14    1
   107     3     4    2
   108    14    15    1
   109    15    16    2
