@<TRIPOS>MOLECULE
tmp/1pj4A02.pdb
 140 134 0 0 0
SMALL
GASTEIGER

@<TRIPOS>ATOM
      1  N         29.4240    3.1940   23.8710 N.3   127  HIS127     -0.1241
      2  CA        27.9870    3.0210   23.7260 C.3   127  HIS127      0.1621
      3  C         27.1520    3.9740   24.5670 C.2   127  HIS127      0.2264
      4  O         26.4740    3.5620   25.5110 O.2   127  HIS127     -0.2867
      5  CB        27.6150    1.5680   24.0570 C.3   127  HIS127      0.0745
      6  CG        26.2300    1.1870   23.6320 C.ar  127  HIS127      0.0817
      7  ND1       25.7200   -0.0810   23.8090 N.ar  127  HIS127     -0.2268
      8  CD2       25.2460    1.9090   23.0440 C.ar  127  HIS127      0.1154
      9  CE1       24.4820   -0.1230   23.3500 C.ar  127  HIS127      0.1986
     10  NE2       24.1700    1.0710   22.8810 N.ar  127  HIS127     -0.2212
     11  N         24.0820    6.3180   25.5160 N.3   129  LYS129     -0.1245
     12  CA        22.6410    6.3110   25.2670 C.3   129  LYS129      0.1561
     13  C         21.9640    7.6120   25.7030 C.2   129  LYS129      0.2260
     14  O         20.8480    7.9080   25.2750 O.2   129  LYS129     -0.2867
     15  CB        21.9620    5.1470   26.0050 C.3   129  LYS129      0.0271
     16  CG        22.3210    3.7650   25.4770 C.3   129  LYS129      0.0035
     17  CD        21.8800    3.5740   24.0310 C.3   129  LYS129      0.0206
     18  CE        20.3640    3.4660   23.9260 C.3   129  LYS129      0.1093
     19  NZ        19.9270    3.2860   22.5180 N.3   129  LYS129     -0.1314
     20  N         18.6540    4.2000   37.6980 N.3   164  GLY164     -0.1210
     21  CA        19.5230    3.0900   37.3720 C.3   164  GLY164      0.1956
     22  C         20.0140    3.0480   35.9450 C.2   164  GLY164      0.2612
     23  O         20.2500    1.9710   35.3940 O.2   164  GLY164     -0.2717
     24  N         20.1610    4.2100   35.3280 N.am  165  ILE165     -0.1965
     25  CA        20.6720    4.2480   33.9670 C.3   165  ILE165      0.1727
     26  C         22.1780    4.0130   34.1030 C.2   165  ILE165      0.2616
     27  O         22.8010    4.5270   35.0240 O.2   165  ILE165     -0.2715
     28  CB        20.3740    5.6160   33.3170 C.3   165  ILE165      0.0290
     29  CG1       18.8660    5.7430   33.1040 C.3   165  ILE165      0.0022
     30  CG2       21.1380    5.7700   32.0120 C.3   165  ILE165      0.0023
     31  CD1       18.4170    7.0940   32.6080 C.3   165  ILE165      0.0001
     32  N         22.7630    3.2210   33.2120 N.am  166  ARG166     -0.1977
     33  CA        24.1880    2.9470   33.3040 C.3   166  ARG166      0.1597
     34  C         25.0420    4.2020   33.1260 C.2   166  ARG166      0.2287
     35  O         24.9110    4.9190   32.1260 O.2   166  ARG166     -0.2864
     36  CB        24.5870    1.8920   32.2750 C.3   166  ARG166      0.0334
     37  CG        24.0460    0.4920   32.5920 C.3   166  ARG166      0.0492
     38  CD        24.4140   -0.5220   31.5100 C.3   166  ARG166      0.2205
     39  NE        25.8300   -0.4430   31.1650 N.pl3 166  ARG166     -0.0865
     40  CZ        26.4690   -1.3200   30.3970 C.cat 166  ARG166      0.5346
     41  NH1       25.8220   -2.3660   29.8870 N.pl3 166  ARG166      0.1354
     42  NH2       27.7580   -1.1450   30.1240 N.pl3 166  ARG166      0.1354
     43  N         27.0440    4.9450   30.0420 N.3   169  ARG169     -0.1245
     44  CA        26.2730    5.2720   28.8580 C.3   169  ARG169      0.1563
     45  C         25.6890    6.6910   28.9090 C.2   169  ARG169      0.2260
     46  O         24.8200    7.0400   28.1130 O.2   169  ARG169     -0.2867
     47  CB        25.1760    4.2360   28.6500 C.3   169  ARG169      0.0307
     48  CG        25.7680    2.8540   28.4730 C.3   169  ARG169      0.0489
     49  CD        24.8010    1.9030   27.8550 C.3   169  ARG169      0.2205
     50  NE        25.3980    0.5850   27.7030 N.pl3 169  ARG169     -0.0865
     51  CZ        24.6910   -0.5130   27.4710 C.cat 169  ARG169      0.5346
     52  NH1       23.3670   -0.4370   27.3670 N.pl3 169  ARG169      0.1354
     53  NH2       25.3000   -1.6830   27.3570 N.pl3 169  ARG169      0.1354
     54  N         14.7450    6.7990   31.2170 N.3   442  LEU442     -0.1245
     55  CA        14.9170    5.3520   31.2450 C.3   442  LEU442      0.1561
     56  C         13.9640    4.6760   30.2590 C.2   442  LEU442      0.2260
     57  O         14.3820    3.8410   29.4590 O.2   442  LEU442     -0.2867
     58  CB        14.6750    4.7930   32.6550 C.3   442  LEU442      0.0270
     59  CG        14.8680    3.2660   32.7270 C.3   442  LEU442      0.0019
     60  CD1       16.3070    2.9340   32.3610 C.3   442  LEU442      0.0001
     61  CD2       14.5390    2.7320   34.1190 C.3   442  LEU442      0.0001
     62  N         14.9140    5.2570   26.5650 N.3   445  ILE445     -0.1231
     63  CA        16.1100    4.5100   26.2020 C.3   445  ILE445      0.1692
     64  C         15.7880    3.0160   26.0360 C.2   445  ILE445      0.2591
     65  O         16.1620    2.3920   25.0360 O.2   445  ILE445     -0.2718
     66  CB        17.2100    4.6830   27.2840 C.3   445  ILE445      0.0266
     67  CG1       17.7320    6.1230   27.2660 C.3   445  ILE445      0.0019
     68  CG2       18.3610    3.7270   27.0300 C.3   445  ILE445      0.0020
     69  CD1       18.6230    6.4850   28.4560 C.3   445  ILE445      0.0001
     70  N         15.0870    2.4490   27.0120 N.am  446  LEU446     -0.1980
     71  CA        14.7320    1.0310   26.9710 C.3   446  LEU446      0.1596
     72  C         13.7990    0.6640   25.8150 C.2   446  LEU446      0.2287
     73  O         13.8590   -0.4460   25.3020 O.2   446  LEU446     -0.2864
     74  CB        14.0920    0.5990   28.2990 C.3   446  LEU446      0.0297
     75  CG        14.9260    0.7000   29.5880 C.3   446  LEU446      0.0022
     76  CD1       14.2240   -0.0260   30.7370 C.3   446  LEU446      0.0001
     77  CD2       16.2760    0.0740   29.3630 C.3   446  LEU446      0.0001
     78  N         13.7670    2.2180   22.8750 N.3   448  ASN448     -0.1240
     79  CA        14.3410    2.6330   21.5940 C.3   448  ASN448      0.1653
     80  C         13.4300    3.6350   20.8890 C.2   448  ASN448      0.2266
     81  O         13.2520    3.5800   19.6690 O.2   448  ASN448     -0.2867
     82  CB        14.5720    1.4230   20.6830 C.3   448  ASN448      0.1155
     83  CG        15.7700    0.5880   21.1060 C.2   448  ASN448      0.2627
     84  OD1       15.9490   -0.5320   20.6370 O.2   448  ASN448     -0.2716
     85  ND2       16.6020    1.1370   21.9860 N.am  448  ASN448     -0.0877
     86  N         11.7510   -1.1360   20.3270 N.3   507  ARG507     -0.1245
     87  CA        12.5320   -2.2360   20.8660 C.3   507  ARG507      0.1563
     88  C         11.7290   -3.5200   20.6230 C.2   507  ARG507      0.2260
     89  O         10.5930   -3.6420   21.0750 O.2   507  ARG507     -0.2867
     90  CB        12.7580   -2.0310   22.3670 C.3   507  ARG507      0.0307
     91  CG        13.7300   -3.0100   23.0050 C.3   507  ARG507      0.0489
     92  CD        13.1360   -4.3950   23.2520 C.3   507  ARG507      0.2205
     93  NE        14.0950   -5.2380   23.9600 N.pl3 507  ARG507     -0.0865
     94  CZ        13.8630   -6.4830   24.3670 C.cat 507  ARG507      0.5346
     95  NH1       12.6860   -7.0510   24.1360 N.pl3 507  ARG507      0.1354
     96  NH2       14.8060   -7.1570   25.0180 N.pl3 507  ARG507      0.1354
     97  N         10.4060   -6.0580   32.7750 N.3   517  TYR517     -0.1241
     98  CA        11.3110   -5.5990   31.7270 C.3   517  TYR517      0.1605
     99  C         12.2080   -4.4410   32.1860 C.2   517  TYR517      0.2264
    100  O         13.4130   -4.4310   31.9230 O.2   517  TYR517     -0.2867
    101  CB        10.5040   -5.1620   30.4970 C.3   517  TYR517      0.0534
    102  CG        11.3690   -4.6160   29.3850 C.ar  517  TYR517     -0.0201
    103  CD1       12.2400   -5.4520   28.6840 C.ar  517  TYR517     -0.0009
    104  CD2       11.3670   -3.2580   29.0750 C.ar  517  TYR517     -0.0009
    105  CE1       13.0890   -4.9510   27.7130 C.ar  517  TYR517      0.0417
    106  CE2       12.2120   -2.7420   28.0980 C.ar  517  TYR517      0.0417
    107  CZ        13.0720   -3.5940   27.4210 C.ar  517  TYR517      0.1957
    108  OH        13.9100   -3.0920   26.4440 O.3   517  TYR517     -0.2866
    109  N         16.6460   -4.4530   33.9720 N.3   521  ARG521     -0.1231
    110  CA        17.6950   -3.6850   33.3180 C.3   521  ARG521      0.1694
    111  C         18.2610   -2.4800   34.0400 C.2   521  ARG521      0.2593
    112  O         19.0240   -1.7160   33.4600 O.2   521  ARG521     -0.2718
    113  CB        17.2020   -3.2790   31.9290 C.3   521  ARG521      0.0321
    114  CG        16.9400   -4.4970   31.0780 C.3   521  ARG521      0.0489
    115  CD        16.1190   -4.2000   29.8450 C.3   521  ARG521      0.2205
    116  NE        16.0090   -5.3960   29.0150 N.pl3 521  ARG521     -0.0865
    117  CZ        15.3720   -6.5150   29.3660 C.cat 521  ARG521      0.5346
    118  NH1       14.7670   -6.6140   30.5410 N.pl3 521  ARG521      0.1354
    119  NH2       15.3530   -7.5500   28.5340 N.pl3 521  ARG521      0.1354
    120  N         17.8990   -2.2940   35.2960 N.am  522  THR522     -0.1939
    121  CA        18.4300   -1.1530   36.0260 C.3   522  THR522      0.2028
    122  C         19.8270   -1.4680   36.5530 C.2   522  THR522      0.2642
    123  O         20.0670   -2.5300   37.1150 O.2   522  THR522     -0.2714
    124  CB        17.5340   -0.7800   37.2100 C.3   522  THR522      0.1808
    125  OG1       17.3800   -1.9190   38.0630 O.3   522  THR522     -0.2208
    126  CG2       16.1730   -0.3180   36.7210 C.3   522  THR522      0.0379
    127  N         20.7480   -0.5380   36.3520 N.am  523  TRP523     -0.1973
    128  CA        22.1150   -0.6950   36.8170 C.3   523  TRP523      0.1640
    129  C         22.1050   -0.6500   38.3430 C.2   523  TRP523      0.2290
    130  O         21.3260    0.0860   38.9370 O.2   523  TRP523     -0.2864
    131  CB        22.9690    0.4340   36.2600 C.3   523  TRP523      0.0576
    132  CG        24.3940    0.3930   36.6680 C.ar  523  TRP523      0.0006
    133  CD1       25.4120   -0.2410   36.0280 C.ar  523  TRP523      0.0946
    134  CD2       24.9830    1.1140   37.7540 C.ar  523  TRP523      0.0152
    135  NE1       26.6100    0.0550   36.6360 N.ar  523  TRP523     -0.2442
    136  CE2       26.3740    0.8850   37.6990 C.ar  523  TRP523      0.0810
    137  CE3       24.4670    1.9400   38.7690 C.ar  523  TRP523      0.0012
    138  CZ2       27.2650    1.4550   38.6150 C.ar  523  TRP523      0.0191
    139  CZ3       25.3520    2.5080   39.6850 C.ar  523  TRP523      0.0001
    140  CH2       26.7400    2.2620   39.5980 C.ar  523  TRP523      0.0015
@<TRIPOS>BOND
     1    81    80    2
     2    86    87    1
     3    88    87    1
     4    88    89    2
     5    84    83    2
     6    82    83    1
     7    82    79    1
     8    87    90    1
     9    80    79    1
    10    83    85   am
    11    79    78    1
    12    90    91    1
    13    19    18    1
    14    10     8   ar
    15    10     9   ar
    16    91    92    1
    17     8     6   ar
    18    92    93    1
    19     9     7   ar
    20     6     7   ar
    21     6     5    1
    22     2     1    1
    23     2     5    1
    24     2     3    1
    25    18    17    1
    26    93    94    2
    27    17    16    1
    28    95    94    1
    29    94    96    1
    30     3     4    2
    31    65    64    2
    32    12    11    1
    33    12    13    1
    34    12    15    1
    35    14    13    2
    36    73    72    2
    37    16    15    1
    38    72    71    1
    39    64    63    1
    40    64    70   am
    41    63    62    1
    42    63    66    1
    43   108   107    1
    44    71    70    1
    45    71    74    1
    46    68    66    1
    47    67    66    1
    48    67    69    1
    49    53    51    1
    50    52    51    1
    51   107   105   ar
    52   107   106   ar
    53    51    50    2
    54    50    49    1
    55   105   103   ar
    56    49    48    1
    57   106   104   ar
    58    46    45    2
    59    74    75    1
    60    48    47    1
    61   119   117    1
    62    47    44    1
    63   103   102   ar
    64    44    45    1
    65    44    43    1
    66   116   117    2
    67   116   115    1
    68   104   102   ar
    69    77    75    1
    70   117   118    1
    71   102   101    1
    72    57    56    2
    73    75    76    1
    74   115   114    1
    75    41    40    1
    76    42    40    1
    77    56    55    1
    78    40    39    2
    79   101    98    1
    80   114   113    1
    81    39    38    1
    82    54    55    1
    83    55    58    1
    84    38    37    1
    85    98    99    1
    86    98    97    1
    87   100    99    2
    88   113   110    1
    89    30    28    1
    90    35    34    2
    91    36    37    1
    92    36    33    1
    93    60    59    1
    94    31    29    1
    95    58    59    1
    96    59    61    1
    97    29    28    1
    98    34    33    1
    99    32    33    1
   100    32    26   am
   101    28    25    1
   102   110   109    1
   103   110   111    1
   104   112   111    2
   105    25    26    1
   106    25    24    1
   107   111   120   am
   108    26    27    2
   109   120   121    1
   110    24    22   am
   111    23    22    2
   112    22    21    1
   113   121   122    1
   114   121   124    1
   115   133   135   ar
   116   133   132   ar
   117   131   132    1
   118   131   128    1
   119   127   122   am
   120   127   128    1
   121   122   123    2
   122   135   136   ar
   123   132   134   ar
   124   126   124    1
   125   128   129    1
   126   124   125    1
   127    21    20    1
   128   136   134   ar
   129   136   138   ar
   130   134   137   ar
   131   129   130    2
   132   138   140   ar
   133   137   139   ar
   134   140   139   ar
