@<TRIPOS>MOLECULE
tmp/1pj6A00.pdb
 189 183 0 0 0
SMALL
GASTEIGER

@<TRIPOS>ATOM
      1  N         40.6040   89.7620   47.4750 N.3   506  LEU506     -0.1245
      2  CA        41.1240   88.5240   46.8590 C.3   506  LEU506      0.1561
      3  C         40.4050   87.3360   47.4990 C.2   506  LEU506      0.2260
      4  O         40.4130   87.2040   48.7270 O.2   506  LEU506     -0.2867
      5  CB        42.6220   88.4060   47.1520 C.3   506  LEU506      0.0270
      6  CG        43.2950   87.1210   46.6300 C.3   506  LEU506      0.0019
      7  CD1       43.3580   87.2270   45.1070 C.3   506  LEU506      0.0001
      8  CD2       44.7330   86.9920   47.2190 C.3   506  LEU506      0.0001
      9  N         54.3780   69.3630   51.4650 N.3   530  LYS530     -0.1245
     10  CA        55.5450   70.1360   51.8720 C.3   530  LYS530      0.1561
     11  C         55.2980   70.5490   53.3100 C.2   530  LYS530      0.2260
     12  O         54.1540   70.6970   53.7150 O.2   530  LYS530     -0.2867
     13  CB        55.6560   71.4180   51.0430 C.3   530  LYS530      0.0271
     14  CG        56.0080   71.2290   49.5850 C.3   530  LYS530      0.0035
     15  CD        55.5220   72.4350   48.7780 C.3   530  LYS530      0.0206
     16  CE        56.1200   72.4410   47.3670 C.3   530  LYS530      0.1093
     17  NZ        55.8090   73.6980   46.6110 N.3   530  LYS530     -0.1314
     18  N         54.3770   78.3070   50.4950 N.3   535  VAL535     -0.1231
     19  CA        53.3910   78.8920   49.5940 C.3   535  VAL535      0.1692
     20  C         53.7030   78.3900   48.1850 C.2   535  VAL535      0.2593
     21  O         54.8770   78.3240   47.7720 O.2   535  VAL535     -0.2718
     22  CB        53.4520   80.4530   49.6290 C.3   535  VAL535      0.0266
     23  CG1       52.2660   81.0310   48.8260 C.3   535  VAL535      0.0020
     24  CG2       53.3570   80.9900   51.0460 C.3   535  VAL535      0.0020
     25  N         52.6630   77.9760   47.4650 N.am  536  THR536     -0.1939
     26  CA        52.8140   77.4600   46.0940 C.3   536  THR536      0.2028
     27  C         51.8100   78.1200   45.1650 C.2   536  THR536      0.2642
     28  O         50.6030   78.1100   45.4290 O.2   536  THR536     -0.2714
     29  CB        52.5650   75.9510   46.0820 C.3   536  THR536      0.1808
     30  OG1       53.4210   75.3300   47.0480 O.3   536  THR536     -0.2208
     31  CG2       53.0260   75.3400   44.7630 C.3   536  THR536      0.0379
     32  N         52.3110   78.6060   44.0320 N.am  537  TYR537     -0.1973
     33  CA        51.4350   79.0580   42.9570 C.3   537  TYR537      0.1639
     34  C         51.1680   77.8290   42.1240 C.2   537  TYR537      0.2290
     35  O         52.1170   77.1060   41.7060 O.2   537  TYR537     -0.2864
     36  CB        52.1600   80.0830   42.1270 C.3   537  TYR537      0.0560
     37  CG        51.4080   80.5630   40.9020 C.ar  537  TYR537     -0.0198
     38  CD1       50.4270   81.5670   41.0210 C.ar  537  TYR537     -0.0009
     39  CD2       51.7070   80.0790   39.6260 C.ar  537  TYR537     -0.0009
     40  CE1       49.7470   82.0530   39.8780 C.ar  537  TYR537      0.0417
     41  CE2       50.9880   80.5470   38.4900 C.ar  537  TYR537      0.0417
     42  CZ        50.0210   81.5440   38.6430 C.ar  537  TYR537      0.1957
     43  OH        49.3460   82.0570   37.5400 O.3   537  TYR537     -0.2866
     44  N         44.1110   79.9570   38.4210 N.3   550  ASP550     -0.1225
     45  CA        45.4440   79.9150   39.0350 C.3   550  ASP550      0.1805
     46  C         45.3060   80.3880   40.4730 C.2   550  ASP550      0.2598
     47  O         44.6600   81.4480   40.7390 O.2   550  ASP550     -0.2718
     48  CB        46.4640   80.7350   38.2370 C.3   550  ASP550      0.1424
     49  CG        46.1230   82.2230   38.1450 C.2   550  ASP550      0.3668
     50  OD1       44.9100   82.6000   38.0850 O.co2 550  ASP550     -0.2456
     51  OD2       47.0270   83.1140   38.1010 O.co2 550  ASP550     -0.2456
     52  N         45.8810   79.6340   41.4080 N.am  551  ILE551     -0.1966
     53  CA        45.6620   79.9290   42.8410 C.3   551  ILE551      0.1727
     54  C         46.9830   79.9360   43.6050 C.2   551  ILE551      0.2616
     55  O         47.9910   79.4040   43.1320 O.2   551  ILE551     -0.2715
     56  CB        44.6740   78.9220   43.4820 C.3   551  ILE551      0.0290
     57  CG1       45.2590   77.5130   43.4940 C.3   551  ILE551      0.0022
     58  CG2       43.3110   78.9180   42.7450 C.3   551  ILE551      0.0023
     59  CD1       44.4730   76.4860   44.3580 C.3   551  ILE551      0.0001
     60  N         46.9690   80.5100   44.8060 N.am  552  THR552     -0.1951
     61  CA        48.1090   80.3000   45.7180 C.3   552  THR552      0.1897
     62  C         47.6350   79.4130   46.8190 C.2   552  THR552      0.2313
     63  O         46.5210   79.5730   47.2950 O.2   552  THR552     -0.2863
     64  CB        48.6860   81.5980   46.3100 C.3   552  THR552      0.1794
     65  OG1       47.6280   82.4130   46.8630 O.3   552  THR552     -0.2208
     66  CG2       49.3210   82.4340   45.1800 C.3   552  THR552      0.0378
     67  N         44.4080   81.4930   47.9530 N.3   564  GLY564     -0.1225
     68  CA        44.0030   82.7420   47.3050 C.3   564  GLY564      0.1811
     69  C         43.4740   82.3140   45.9480 C.2   564  GLY564      0.2280
     70  O         44.2000   81.6730   45.1820 O.2   564  GLY564     -0.2866
     71  N         61.4910   83.7290   50.2700 N.3   629  TYR629     -0.1227
     72  CA        60.5070   83.9480   49.2050 C.3   629  TYR629      0.1736
     73  C         59.5390   82.7760   49.0830 C.2   629  TYR629      0.2595
     74  O         59.9270   81.5860   49.1910 O.2   629  TYR629     -0.2718
     75  CB        61.2570   84.1120   47.9060 C.3   629  TYR629      0.0548
     76  CG        60.4650   84.6150   46.7300 C.ar  629  TYR629     -0.0200
     77  CD1       59.8250   85.8470   46.7810 C.ar  629  TYR629     -0.0009
     78  CD2       60.4000   83.8880   45.5460 C.ar  629  TYR629     -0.0009
     79  CE1       59.1120   86.3330   45.6910 C.ar  629  TYR629      0.0417
     80  CE2       59.6970   84.3830   44.4260 C.ar  629  TYR629      0.0417
     81  CZ        59.0440   85.5980   44.5170 C.ar  629  TYR629      0.1957
     82  OH        58.3520   86.1100   43.4210 O.3   629  TYR629     -0.2866
     83  N         58.2530   83.1020   48.8950 N.am  630  PHE630     -0.1976
     84  CA        57.2000   82.0880   48.8030 C.3   630  PHE630      0.1639
     85  C         57.0860   81.1840   50.0260 C.2   630  PHE630      0.2290
     86  O         56.7600   80.0020   49.9170 O.2   630  PHE630     -0.2864
     87  CB        57.2750   81.2690   47.4830 C.3   630  PHE630      0.0560
     88  CG        56.4250   81.8460   46.3810 C.ar  630  PHE630     -0.0200
     89  CD1       56.7490   83.0790   45.8410 C.ar  630  PHE630     -0.0042
     90  CD2       55.2840   81.1810   45.9380 C.ar  630  PHE630     -0.0042
     91  CE1       55.9520   83.6560   44.8390 C.ar  630  PHE630     -0.0003
     92  CE2       54.4870   81.7370   44.9390 C.ar  630  PHE630     -0.0003
     93  CZ        54.8150   82.9920   44.4110 C.ar  630  PHE630     -0.0000
     94  N         55.3460   87.1810   48.8200 N.3   647  LEU647     -0.1231
     95  CA        55.1640   87.1880   47.3760 C.3   647  LEU647      0.1693
     96  C         54.5730   88.5470   47.0650 C.2   647  LEU647      0.2593
     97  O         54.1500   89.2950   47.9730 O.2   647  LEU647     -0.2718
     98  CB        54.2320   86.0510   46.8720 C.3   647  LEU647      0.0284
     99  CG        52.7370   86.0970   47.2030 C.3   647  LEU647      0.0019
    100  CD1       52.0260   84.8980   46.5240 C.3   647  LEU647      0.0001
    101  CD2       52.4810   86.0390   48.7310 C.3   647  LEU647      0.0001
    102  N         54.5700   88.8840   45.7850 N.am  648  SER648     -0.1938
    103  CA        54.1180   90.2320   45.4130 C.3   648  SER648      0.2055
    104  C         53.5760   90.2610   44.0100 C.2   648  SER648      0.2643
    105  O         54.3470   90.1250   43.0120 O.2   648  SER648     -0.2714
    106  CB        55.3160   91.1530   45.4520 C.3   648  SER648      0.2130
    107  OG        54.9600   92.4680   45.0210 O.3   648  SER648     -0.2179
    108  N         52.2820   90.5600   43.8830 N.am  649  TYR649     -0.1973
    109  CA        51.6810   90.6610   42.5360 C.3   649  TYR649      0.1639
    110  C         52.2530   91.8690   41.7760 C.2   649  TYR649      0.2290
    111  O         52.0590   91.9620   40.5510 O.2   649  TYR649     -0.2864
    112  CB        50.1710   90.8610   42.7130 C.3   649  TYR649      0.0560
    113  CG        49.2680   89.8310   42.0770 C.ar  649  TYR649     -0.0198
    114  CD1       48.2760   89.1970   42.8300 C.ar  649  TYR649     -0.0009
    115  CD2       49.3570   89.5490   40.7110 C.ar  649  TYR649     -0.0009
    116  CE1       47.3970   88.2710   42.2360 C.ar  649  TYR649      0.0417
    117  CE2       48.4970   88.6120   40.1100 C.ar  649  TYR649      0.0417
    118  CZ        47.5180   87.9910   40.8800 C.ar  649  TYR649      0.1957
    119  OH        46.6600   87.1100   40.2500 O.3   649  TYR649     -0.2866
    120  N         52.2190   89.8120   51.6270 N.3   656  GLU656     -0.1245
    121  CA        50.8030   89.8610   51.8900 C.3   656  GLU656      0.1567
    122  C         50.6500   89.6380   53.3960 C.2   656  GLU656      0.2260
    123  O         51.1540   88.6390   53.9640 O.2   656  GLU656     -0.2867
    124  CB        50.0140   88.7970   51.1230 C.3   656  GLU656      0.0388
    125  CG        50.0850   89.0550   49.6180 C.3   656  GLU656      0.1160
    126  CD        49.2960   88.0720   48.8250 C.2   656  GLU656      0.3649
    127  OE1       48.9880   86.9770   49.3160 O.co2 656  GLU656     -0.2457
    128  OE2       49.0270   88.3700   47.6350 O.co2 656  GLU656     -0.2457
    129  N         52.3660   88.8050   35.0220 N.3   697  TYR697     -0.1227
    130  CA        51.5650   87.9270   35.8310 C.3   697  TYR697      0.1736
    131  C         50.1650   87.8200   35.2320 C.2   697  TYR697      0.2595
    132  O         49.5380   88.8360   34.8800 O.2   697  TYR697     -0.2718
    133  CB        51.5390   88.4770   37.2710 C.3   697  TYR697      0.0548
    134  CG        52.8830   88.5110   37.9760 C.ar  697  TYR697     -0.0200
    135  CD1       53.0610   89.3320   39.0900 C.ar  697  TYR697     -0.0009
    136  CD2       53.9350   87.6760   37.5880 C.ar  697  TYR697     -0.0009
    137  CE1       54.2400   89.3270   39.8070 C.ar  697  TYR697      0.0417
    138  CE2       55.1390   87.6690   38.2940 C.ar  697  TYR697      0.0417
    139  CZ        55.2740   88.4840   39.4190 C.ar  697  TYR697      0.1957
    140  OH        56.4700   88.4930   40.1320 O.3   697  TYR697     -0.2866
    141  N         49.7060   86.6030   35.0220 N.am  698  ARG698     -0.1980
    142  CA        48.4520   86.3870   34.2850 C.3   698  ARG698      0.1597
    143  C         47.2160   86.6040   35.1350 C.2   698  ARG698      0.2287
    144  O         47.2250   86.2780   36.3260 O.2   698  ARG698     -0.2864
    145  CB        48.4520   84.9280   33.7800 C.3   698  ARG698      0.0334
    146  CG        49.2240   84.7340   32.4520 C.3   698  ARG698      0.0492
    147  CD        50.7520   84.9560   32.5080 C.3   698  ARG698      0.2205
    148  NE        51.3580   84.3930   31.2840 N.pl3 698  ARG698     -0.0865
    149  CZ        52.3010   84.9540   30.5390 C.cat 698  ARG698      0.5346
    150  NH1       52.8590   86.1130   30.8330 N.pl3 698  ARG698      0.1354
    151  NH2       52.7440   84.3130   29.4340 N.pl3 698  ARG698      0.1354
    152  N         55.6100   76.2290   33.9890 N.3   717  PHE717     -0.1241
    153  CA        56.4000   76.1460   35.2310 C.3   717  PHE717      0.1605
    154  C         55.5490   75.7270   36.4250 C.2   717  PHE717      0.2264
    155  O         56.0770   75.1930   37.4180 O.2   717  PHE717     -0.2867
    156  CB        57.1260   77.4630   35.5000 C.3   717  PHE717      0.0534
    157  CG        56.2070   78.5810   35.9260 C.ar  717  PHE717     -0.0203
    158  CD1       55.8230   78.7150   37.2660 C.ar  717  PHE717     -0.0042
    159  CD2       55.7160   79.4670   34.9960 C.ar  717  PHE717     -0.0042
    160  CE1       54.9560   79.7440   37.6680 C.ar  717  PHE717     -0.0003
    161  CE2       54.8480   80.5000   35.3860 C.ar  717  PHE717     -0.0003
    162  CZ        54.4720   80.6260   36.7350 C.ar  717  PHE717     -0.0000
    163  N         64.4990   89.2090   38.5990 N.3   823  MET823     -0.1245
    164  CA        63.8270   89.0760   39.9050 C.3   823  MET823      0.1570
    165  C         64.6910   89.6240   41.0280 C.2   823  MET823      0.2261
    166  O         64.5400   89.1870   42.1870 O.2   823  MET823     -0.2867
    167  CB        63.4850   87.6230   40.2040 C.3   823  MET823      0.0387
    168  CG        62.5880   86.9410   39.1710 C.3   823  MET823      0.0595
    169  SD        62.3810   85.1930   39.6170 S.3   823  MET823     -0.1393
    170  CE        62.0050   85.3030   41.3280 C.3   823  MET823      0.0692
    171  N         62.8180   90.8880   43.9950 N.3   826  LEU826     -0.1231
    172  CA        61.9940   89.9260   44.7200 C.3   826  LEU826      0.1693
    173  C         62.8150   89.0380   45.6270 C.2   826  LEU826      0.2591
    174  O         62.3370   88.5920   46.6670 O.2   826  LEU826     -0.2718
    175  CB        61.1910   89.0610   43.7320 C.3   826  LEU826      0.0284
    176  CG        60.0420   89.7990   43.0250 C.3   826  LEU826      0.0019
    177  CD1       59.5910   88.9950   41.8460 C.3   826  LEU826      0.0001
    178  CD2       58.8550   90.0380   43.9920 C.3   826  LEU826      0.0001
    179  N         64.0600   88.8040   45.2090 N.am  827  ARG827     -0.1980
    180  CA        64.9230   87.8050   45.8110 C.3   827  ARG827      0.1597
    181  C         65.8480   88.2900   46.8580 C.2   827  ARG827      0.2287
    182  O         66.2430   89.4610   46.8930 O.2   827  ARG827     -0.2864
    183  CB        65.8940   87.2560   44.7880 C.3   827  ARG827      0.0334
    184  CG        65.2830   86.4210   43.7960 C.3   827  ARG827      0.0492
    185  CD        64.2720   85.5280   44.3560 C.3   827  ARG827      0.2205
    186  NE        63.9040   84.5840   43.3290 N.pl3 827  ARG827     -0.0865
    187  CZ        63.5990   83.3280   43.5670 C.cat 827  ARG827      0.5346
    188  NH1       63.6470   82.8550   44.7990 N.pl3 827  ARG827      0.1354
    189  NH2       63.2540   82.5410   42.5700 N.pl3 827  ARG827      0.1354
@<TRIPOS>BOND
     1   151   149    1
     2   149   150    1
     3   149   148    2
     4   148   147    1
     5   146   147    1
     6   146   145    1
     7   145   142    1
     8   152   153    1
     9   142   141    1
    10   142   143    1
    11   132   131    2
    12   159   161   ar
    13   159   157   ar
    14   129   130    1
    15   141   131   am
    16   143   144    2
    17   153   156    1
    18   153   154    1
    19   131   130    1
    20   161   162   ar
    21   156   157    1
    22   130   133    1
    23   157   158   ar
    24   154   155    2
    25   162   160   ar
    26   158   160   ar
    27   133   134    1
    28    43    42    1
    29   136   134   ar
    30   136   138   ar
    31   134   135   ar
    32    50    49   ar
    33    51    49   ar
    34    49    48    1
    35    48    45    1
    36   138   139   ar
    37    44    45    1
    38    41    42   ar
    39    41    39   ar
    40   163   164    1
    41    42    40   ar
    42    45    46    1
    43   135   137   ar
    44   168   169    1
    45   168   167    1
    46   139   137   ar
    47   139   140    1
    48   169   170    1
    49    39    37   ar
    50    40    38   ar
    51   164   167    1
    52   164   165    1
    53   117   115   ar
    54   117   118   ar
    55   119   118    1
    56    46    47    2
    57    46    52   am
    58   111   110    2
    59   115   113   ar
    60   118   116   ar
    61    37    38   ar
    62    37    36    1
    63   165   166    2
    64    52    53    1
    65    35    34    2
    66   110   109    1
    67   177   176    1
    68   113   112    1
    69   113   114   ar
    70    34    33    1
    71    36    33    1
    72   116   114   ar
    73   109   112    1
    74   109   108    1
    75   189   187    1
    76    58    56    1
    77    53    56    1
    78    53    54    1
    79    33    32    1
    80   105   104    2
    81   176   175    1
    82   176   178    1
    83    55    54    2
    84   186   187    2
    85   186   185    1
    86    82    81    1
    87    56    57    1
    88    57    59    1
    89   187   188    1
    90    54    60   am
    91   175   172    1
    92   184   185    1
    93   184   183    1
    94   108   104   am
    95   171   172    1
    96   104   103    1
    97    32    27   am
    98    93    91   ar
    99    93    92   ar
   100    80    81   ar
   101    80    78   ar
   102    81    79   ar
   103   172   173    1
   104    31    29    1
   105   183   180    1
   106    60    61    1
   107    91    89   ar
   108    92    90   ar
   109   107   106    1
   110     7     6    1
   111    27    28    2
   112    27    26    1
   113    66    64    1
   114    70    69    2
   115   179   173   am
   116   179   180    1
   117   103   106    1
   118   103   102    1
   119    78    76   ar
   120   173   174    2
   121    79    77   ar
   122    61    64    1
   123    61    62    1
   124   102    96   am
   125   180   181    1
   126    89    88   ar
   127    90    88   ar
   128    69    68    1
   129    29    26    1
   130    29    30    1
   131    26    25    1
   132    64    65    1
   133    88    87    1
   134   100    99    1
   135    17    16    1
   136     6     5    1
   137     6     8    1
   138    76    77   ar
   139    76    75    1
   140    62    63    2
   141   181   182    2
   142     2     5    1
   143     2     1    1
   144     2     3    1
   145    98    99    1
   146    98    95    1
   147    96    95    1
   148    96    97    2
   149    99   101    1
   150    68    67    1
   151    16    15    1
   152    95    94    1
   153    25    20   am
   154    87    84    1
   155     3     4    2
   156   128   126   ar
   157    21    20    2
   158    75    72    1
   159    20    19    1
   160    15    14    1
   161    84    83    1
   162    84    85    1
   163   126   127   ar
   164   126   125    1
   165    23    22    1
   166    83    73   am
   167    73    74    2
   168    73    72    1
   169    72    71    1
   170    14    13    1
   171    19    22    1
   172    19    18    1
   173   125   124    1
   174    22    24    1
   175    86    85    2
   176    13    10    1
   177   124   121    1
   178     9    10    1
   179   120   121    1
   180    10    11    1
   181   121   122    1
   182    11    12    2
   183   122   123    2
