@<TRIPOS>MOLECULE
tmp/1pj9A04.pdb
 87 82 0 0 0
SMALL
GASTEIGER

@<TRIPOS>ATOM
      1  N         50.8090   85.9910   40.4120 N.3   259  PHE259     -0.1241
      2  CA        50.6780   87.4250   40.2040 C.3   259  PHE259      0.1605
      3  C         52.0200   88.1370   40.0560 C.2   259  PHE259      0.2264
      4  O         52.9690   87.8620   40.7930 O.2   259  PHE259     -0.2867
      5  CB        49.8860   88.0520   41.3570 C.3   259  PHE259      0.0534
      6  CG        49.3330   89.4150   41.0410 C.ar  259  PHE259     -0.0203
      7  CD1       50.1720   90.5200   40.9420 C.ar  259  PHE259     -0.0042
      8  CD2       47.9720   89.5860   40.8120 C.ar  259  PHE259     -0.0042
      9  CE1       49.6650   91.7770   40.6180 C.ar  259  PHE259     -0.0003
     10  CE2       47.4550   90.8390   40.4870 C.ar  259  PHE259     -0.0003
     11  CZ        48.3060   91.9340   40.3900 C.ar  259  PHE259     -0.0000
     12  N         53.5230   92.2310   39.2870 N.3   261  GLY261     -0.1210
     13  CA        53.1350   93.6260   39.1910 C.3   261  GLY261      0.1956
     14  C         53.7460   94.2910   37.9750 C.2   261  GLY261      0.2611
     15  O         54.4840   93.6590   37.2170 O.2   261  GLY261     -0.2717
     16  N         53.4380   95.5700   37.7840 N.am  262  VAL262     -0.1979
     17  CA        53.9800   96.3220   36.6620 C.3   262  VAL262      0.1595
     18  C         55.5080   96.3030   36.7050 C.2   262  VAL262      0.2287
     19  O         56.1120   96.4800   37.7640 O.2   262  VAL262     -0.2864
     20  CB        53.4910   97.7850   36.6880 C.3   262  VAL262      0.0276
     21  CG1       54.0310   98.5380   35.4840 C.3   262  VAL262      0.0022
     22  CG2       51.9740   97.8210   36.6920 C.3   262  VAL262      0.0022
     23  N         50.5020   92.8130   32.1350 N.3   287  GLN287     -0.1245
     24  CA        50.9130   94.1000   32.6870 C.3   287  GLN287      0.1566
     25  C         51.5420   95.0110   31.6310 C.2   287  GLN287      0.2260
     26  O         51.2920   96.2160   31.6220 O.2   287  GLN287     -0.2867
     27  CB        51.8770   93.8920   33.8630 C.3   287  GLN287      0.0367
     28  CG        51.2560   93.1710   35.0560 C.3   287  GLN287      0.0905
     29  CD        50.2900   94.0390   35.8610 C.2   287  GLN287      0.2608
     30  OE1       49.6650   94.9540   35.3300 O.2   287  GLN287     -0.2717
     31  NE2       50.1520   93.7330   37.1480 N.am  287  GLN287     -0.0878
     32  N         48.8390   96.4320   29.3470 N.3   290  ARG290     -0.1231
     33  CA        48.1240   97.5300   29.9940 C.3   290  ARG290      0.1694
     34  C         48.9710   98.8070   29.9670 C.2   290  ARG290      0.2591
     35  O         48.4560   99.9010   29.7360 O.2   290  ARG290     -0.2718
     36  CB        47.7680   97.1490   31.4380 C.3   290  ARG290      0.0321
     37  CG        46.7520   96.0050   31.5400 C.3   290  ARG290      0.0489
     38  CD        46.5610   95.5350   32.9830 C.3   290  ARG290      0.2205
     39  NE        45.8240   96.4870   33.8130 N.pl3 290  ARG290     -0.0865
     40  CZ        44.5050   96.4670   33.9950 C.cat 290  ARG290      0.5346
     41  NH1       43.7600   95.5400   33.4040 N.pl3 290  ARG290      0.1354
     42  NH2       43.9280   97.3720   34.7780 N.pl3 290  ARG290      0.1354
     43  N         50.2740   98.6700   30.1890 N.am  291  GLN291     -0.1979
     44  CA        51.1630   99.8290   30.1560 C.3   291  GLN291      0.1601
     45  C         51.1530  100.5030   28.7890 C.2   291  GLN291      0.2287
     46  O         51.0930  101.7300   28.6810 O.2   291  GLN291     -0.2864
     47  CB        52.6040   99.4200   30.4600 C.3   291  GLN291      0.0394
     48  CG        52.9200   99.1270   31.9030 C.3   291  GLN291      0.0908
     49  CD        54.3980   98.8540   32.0920 C.2   291  GLN291      0.2608
     50  OE1       54.9130   97.8240   31.6540 O.2   291  GLN291     -0.2717
     51  NE2       55.0950   99.7900   32.7260 N.am  291  GLN291     -0.0878
     52  N         46.7610  100.7260   27.5760 N.3   294  ARG294     -0.1231
     53  CA        45.8100  101.3180   28.5120 C.3   294  ARG294      0.1694
     54  C         46.2980  102.5530   29.2610 C.2   294  ARG294      0.2592
     55  O         45.6730  103.6120   29.1960 O.2   294  ARG294     -0.2718
     56  CB        45.3750  100.2680   29.5410 C.3   294  ARG294      0.0321
     57  CG        44.3400  100.7490   30.5680 C.3   294  ARG294      0.0489
     58  CD        44.0410   99.6440   31.5800 C.3   294  ARG294      0.2205
     59  NE        42.8500   99.8860   32.3990 N.pl3 294  ARG294     -0.0865
     60  CZ        42.8330  100.5770   33.5350 C.cat 294  ARG294      0.5346
     61  NH1       43.9480  101.1170   34.0130 N.pl3 294  ARG294      0.1354
     62  NH2       41.6960  100.7120   34.2090 N.pl3 294  ARG294      0.1354
     63  N         47.4190  102.4090   29.9610 N.am  295  ASP295     -0.1974
     64  CA        47.9280  103.4610   30.8320 C.3   295  ASP295      0.1709
     65  C         49.0230  104.3710   30.2880 C.2   295  ASP295      0.2293
     66  O         49.4340  105.3130   30.9640 O.2   295  ASP295     -0.2864
     67  CB        48.3920  102.8270   32.1450 C.3   295  ASP295      0.1436
     68  CG        47.3510  101.8850   32.7310 C.2   295  ASP295      0.3671
     69  OD1       46.1690  102.2750   32.7900 O.co2 295  ASP295     -0.2456
     70  OD2       47.7100  100.7600   33.1380 O.co2 295  ASP295     -0.2456
     71  N         41.9490   92.7060   38.9950 N.3   329  MET329     -0.1230
     72  CA        42.4830   93.9400   38.4280 C.3   329  MET329      0.1702
     73  C         41.3320   94.8320   38.0090 C.2   329  MET329      0.2592
     74  O         40.2210   94.3520   37.7770 O.2   329  MET329     -0.2718
     75  CB        43.3100   93.6630   37.1700 C.3   329  MET329      0.0401
     76  CG        44.4860   92.7410   37.3290 C.3   329  MET329      0.0596
     77  SD        45.3480   92.6230   35.7440 S.3   329  MET329     -0.1393
     78  CE        46.8010   91.7130   36.2390 C.3   329  MET329      0.0692
     79  N         41.5970   96.1290   37.8960 N.am  330  GLU330     -0.1979
     80  CA        40.5790   97.0480   37.4150 C.3   330  GLU330      0.1602
     81  C         40.3100   96.6540   35.9650 C.2   330  GLU330      0.2287
     82  O         41.2370   96.2800   35.2410 O.2   330  GLU330     -0.2864
     83  CB        41.0870   98.4920   37.4510 C.3   330  GLU330      0.0415
     84  CG        41.4370   99.0150   38.8310 C.3   330  GLU330      0.1163
     85  CD        41.9210  100.4510   38.7910 C.2   330  GLU330      0.3649
     86  OE1       42.9570  100.7130   38.1460 O.co2 330  GLU330     -0.2457
     87  OE2       41.2650  101.3200   39.3980 O.co2 330  GLU330     -0.2457
@<TRIPOS>BOND
     1    52    53    1
     2    53    54    1
     3    53    56    1
     4    46    45    2
     5    45    44    1
     6    55    54    2
     7    54    63   am
     8    32    33    1
     9    56    57    1
    10    35    34    2
    11    63    64    1
    12    34    33    1
    13    34    43   am
    14    33    36    1
    15    44    43    1
    16    44    47    1
    17    65    64    1
    18    65    66    2
    19    47    48    1
    20    57    58    1
    21    64    67    1
    22    36    37    1
    23    37    38    1
    24    58    59    1
    25    26    25    2
    26    25    24    1
    27    50    49    2
    28    48    49    1
    29    49    51   am
    30    23    24    1
    31    67    68    1
    32    59    60    2
    33    24    27    1
    34    68    69   ar
    35    68    70   ar
    36    38    39    1
    37    41    40    1
    38    60    61    1
    39    60    62    1
    40    39    40    2
    41    27    28    1
    42    40    42    1
    43    28    29    1
    44    82    81    2
    45    30    29    2
    46    21    20    1
    47    77    78    1
    48    77    76    1
    49    29    31   am
    50    81    80    1
    51    17    20    1
    52    17    18    1
    53    17    16    1
    54    20    22    1
    55    18    19    2
    56    75    76    1
    57    75    72    1
    58    15    14    2
    59    80    83    1
    60    80    79    1
    61    83    84    1
    62    74    73    2
    63    16    14   am
    64    79    73   am
    65    14    13    1
    66    73    72    1
    67    86    85   ar
    68    72    71    1
    69    85    84    1
    70    85    87   ar
    71    13    12    1
    72     3     2    1
    73     3     4    2
    74     2     1    1
    75     2     5    1
    76    11    10   ar
    77    11     9   ar
    78    10     8   ar
    79     9     7   ar
    80     8     6   ar
    81     7     6   ar
    82     6     5    1
