@<TRIPOS>MOLECULE
tmp/1pjpA00.pdb
 156 151 0 0 0
SMALL
GASTEIGER

@<TRIPOS>ATOM
      1  N         71.4660   51.9070   -5.7790 N.3    29  PHE29      -0.1227
      2  CA        71.0340   51.1020   -4.6470 C.3    29  PHE29       0.1736
      3  C         69.6190   51.4560   -4.2030 C.2    29  PHE29       0.2595
      4  O         69.1070   52.5270   -4.5280 O.2    29  PHE29      -0.2718
      5  CB        72.0340   51.1810   -3.4760 C.3    29  PHE29       0.0547
      6  CG        71.9010   52.4130   -2.6230 C.ar   29  PHE29      -0.0202
      7  CD1       72.5430   53.5940   -2.9760 C.ar   29  PHE29      -0.0042
      8  CD2       71.1540   52.3840   -1.4400 C.ar   29  PHE29      -0.0042
      9  CE1       72.4460   54.7310   -2.1640 C.ar   29  PHE29      -0.0003
     10  CE2       71.0510   53.5110   -0.6250 C.ar   29  PHE29      -0.0003
     11  CZ        71.6990   54.6870   -0.9880 C.ar   29  PHE29      -0.0000
     12  N         68.9820   50.5170   -3.5140 N.am   30  CYS30      -0.1970
     13  CA        67.6280   50.6890   -3.0020 C.3    30  CYS30       0.1712
     14  C         67.4710   49.7350   -1.8320 C.2    30  CYS30       0.2296
     15  O         68.3780   48.9500   -1.5200 O.2    30  CYS30      -0.2864
     16  CB        66.5850   50.2970   -4.0600 C.3    30  CYS30       0.0983
     17  SG        66.2270   51.4640   -5.4120 S.3    30  CYS30      -0.0798
     18  N         61.0730   51.0330   -9.8910 N.3    45  HIS45      -0.1241
     19  CA        62.0780   51.9770  -10.3810 C.3    45  HIS45       0.1621
     20  C         63.4950   51.5890   -9.9710 C.2    45  HIS45       0.2264
     21  O         64.4600   52.2580  -10.3340 O.2    45  HIS45      -0.2867
     22  CB        61.7510   53.4290   -9.9810 C.3    45  HIS45       0.0745
     23  CG        62.1460   53.8040   -8.5850 C.ar   45  HIS45       0.0817
     24  ND1       61.2370   53.9000   -7.5560 N.ar   45  HIS45      -0.2268
     25  CD2       63.3380   54.1940   -8.0640 C.ar   45  HIS45       0.1154
     26  CE1       61.8440   54.3310   -6.4660 C.ar   45  HIS45       0.1986
     27  NE2       63.1210   54.5180   -6.7490 N.ar   45  HIS45      -0.2212
     28  N         56.7340   54.9030  -15.9820 N.3    83  THR83      -0.1203
     29  CA        57.8670   55.7410  -15.6000 C.3    83  THR83       0.1994
     30  C         57.5160   57.2140  -15.3800 C.2    83  THR83       0.2618
     31  O         58.0660   57.8530  -14.4810 O.2    83  THR83      -0.2717
     32  CB        59.0090   55.6460  -16.6260 C.3    83  THR83       0.1784
     33  OG1       58.4860   55.8600  -17.9470 O.3    83  THR83      -0.2211
     34  CG2       59.6740   54.2760  -16.5490 C.3    83  THR83       0.0376
     35  N         56.6160   57.7540  -16.1980 N.am   84  SER84      -0.1951
     36  CA        56.2180   59.1510  -16.0600 C.3    84  SER84       0.1924
     37  C         55.3260   59.4340  -14.8460 C.2    84  SER84       0.2314
     38  O         55.5640   60.4010  -14.1190 O.2    84  SER84      -0.2863
     39  CB        55.5710   59.6610  -17.3510 C.3    84  SER84       0.2116
     40  OG        54.7810   58.6570  -17.9610 O.3    84  SER84      -0.2180
     41  N         54.8280   57.1460  -12.3230 N.3    86  LEU86      -0.1245
     42  CA        55.3760   56.3640  -11.2130 C.3    86  LEU86       0.1561
     43  C         54.3160   55.4690  -10.5770 C.2    86  LEU86       0.2260
     44  O         54.4510   55.0380   -9.4360 O.2    86  LEU86      -0.2867
     45  CB        56.0520   57.2590  -10.1690 C.3    86  LEU86       0.0270
     46  CG        57.3890   57.8430  -10.6280 C.3    86  LEU86       0.0019
     47  CD1       57.9040   58.8490   -9.6080 C.3    86  LEU86       0.0001
     48  CD2       58.3920   56.7120  -10.8250 C.3    86  LEU86       0.0001
     49  N         51.4180   66.3780   -5.8220 N.3   157  PHE157     -0.1241
     50  CA        52.0410   65.3610   -6.6600 C.3   157  PHE157      0.1605
     51  C         50.8950   65.0400   -7.6150 C.2   157  PHE157      0.2264
     52  O         50.0250   64.2270   -7.3100 O.2   157  PHE157     -0.2867
     53  CB        52.4140   64.1340   -5.8280 C.3   157  PHE157      0.0534
     54  CG        53.5810   64.3540   -4.9030 C.ar  157  PHE157     -0.0203
     55  CD1       54.8470   64.6520   -5.4110 C.ar  157  PHE157     -0.0042
     56  CD2       53.4300   64.2070   -3.5300 C.ar  157  PHE157     -0.0042
     57  CE1       55.9460   64.7920   -4.5540 C.ar  157  PHE157     -0.0003
     58  CE2       54.5220   64.3440   -2.6670 C.ar  157  PHE157     -0.0003
     59  CZ        55.7810   64.6360   -3.1890 C.ar  157  PHE157     -0.0000
     60  N         61.5610   62.1980    6.9360 N.3   176  SER176     -0.1202
     61  CA        61.0050   61.6840    5.6880 C.3   176  SER176      0.2020
     62  C         61.8890   60.6050    5.0930 C.2   176  SER176      0.2619
     63  O         63.0300   60.4180    5.5220 O.2   176  SER176     -0.2717
     64  CB        60.8610   62.8250    4.6650 C.3   176  SER176      0.2103
     65  OG        60.1260   62.4250    3.5110 O.3   176  SER176     -0.2182
     66  N         61.3260   59.8430    4.1610 N.am  177  ALA177     -0.1965
     67  CA        62.0850   58.8300    3.4450 C.3   177  ALA177      0.1728
     68  C         62.6970   59.6740    2.3320 C.2   177  ALA177      0.2616
     69  O         62.1370   60.7140    1.9710 O.2   177  ALA177     -0.2715
     70  CB        61.1580   57.7780    2.8590 C.3   177  ALA177      0.0334
     71  N         63.8120   59.2380    1.7680 N.am  178  PHE178     -0.1960
     72  CA        64.4570   60.0130    0.7190 C.3   178  PHE178      0.1771
     73  C         65.1220   59.0630   -0.2790 C.2   178  PHE178      0.2619
     74  O         64.9050   57.8560   -0.2160 O.2   178  PHE178     -0.2715
     75  CB        65.4700   60.9940    1.3420 C.3   178  PHE178      0.0574
     76  CG        65.9240   62.0900    0.4070 C.ar  178  PHE178     -0.0200
     77  CD1       65.0190   62.7190   -0.4480 C.ar  178  PHE178     -0.0042
     78  CD2       67.2650   62.4640    0.3560 C.ar  178  PHE178     -0.0042
     79  CE1       65.4470   63.7010   -1.3430 C.ar  178  PHE178     -0.0003
     80  CE2       67.7000   63.4430   -0.5340 C.ar  178  PHE178     -0.0003
     81  CZ        66.7920   64.0620   -1.3860 C.ar  178  PHE178     -0.0000
     82  N         65.8880   59.6090   -1.2180 N.am  179  LYS179     -0.1963
     83  CA        66.5730   58.8180   -2.2370 C.3   179  LYS179      0.1728
     84  C         67.4140   57.6850   -1.6550 C.2   179  LYS179      0.2616
     85  O         68.2080   57.8930   -0.7310 O.2   179  LYS179     -0.2715
     86  CB        67.4530   59.7250   -3.0910 C.3   179  LYS179      0.0311
     87  CG        66.6760   60.7670   -3.8630 C.3   179  LYS179      0.0038
     88  CD        67.6040   61.7390   -4.5550 C.3   179  LYS179      0.0206
     89  CE        66.8210   62.6890   -5.4310 C.3   179  LYS179      0.1093
     90  NZ        67.7010   63.7070   -6.0590 N.3   179  LYS179     -0.1314
     91  N         67.2370   56.4910   -2.2120 N.am  180  GLY180     -0.1955
     92  CA        67.9580   55.3190   -1.7460 C.3   180  GLY180      0.1869
     93  C         67.0920   54.4650   -0.8360 C.2   180  GLY180      0.2309
     94  O         67.3720   53.2820   -0.6400 O.2   180  GLY180     -0.2863
     95  N         63.9560   53.8350   -1.4300 N.3   182  SER182     -0.1217
     96  CA        62.9590   53.1890   -2.2720 C.3   182  SER182      0.1889
     97  C         62.9350   51.6770   -2.0670 C.2   182  SER182      0.2288
     98  O         63.9870   51.0500   -1.8900 O.2   182  SER182     -0.2866
     99  CB        63.2400   53.5180   -3.7290 C.3   182  SER182      0.2089
    100  OG        62.9140   54.8840   -3.9970 O.3   182  SER182     -0.2183
    101  N         58.2890   52.5260    0.0030 N.3   196  VAL196     -0.1231
    102  CA        58.7990   53.8520   -0.3550 C.3   196  VAL196      0.1692
    103  C         58.8700   53.9200   -1.8720 C.2   196  VAL196      0.2593
    104  O         59.4660   53.0350   -2.4950 O.2   196  VAL196     -0.2718
    105  CB        60.2250   54.0950    0.1800 C.3   196  VAL196      0.0266
    106  CG1       60.6960   55.5010   -0.1940 C.3   196  VAL196      0.0020
    107  CG2       60.2810   53.8790    1.6810 C.3   196  VAL196      0.0020
    108  N         58.2760   54.9560   -2.4630 N.am  197  SER197     -0.1938
    109  CA        58.2910   55.1000   -3.9090 C.3   197  SER197      0.2055
    110  C         58.9420   56.3850   -4.4330 C.2   197  SER197      0.2643
    111  O         59.9290   56.3240   -5.1680 O.2   197  SER197     -0.2714
    112  CB        56.8750   54.9490   -4.4590 C.3   197  SER197      0.2130
    113  OG        56.8440   55.1960   -5.8500 O.3   197  SER197     -0.2179
    114  N         58.4100   57.5460   -4.0640 N.am  198  TYR198     -0.1959
    115  CA        58.9680   58.8090   -4.5470 C.3   198  TYR198      0.1771
    116  C         58.6150   59.9960   -3.6700 C.2   198  TYR198      0.2620
    117  O         57.8020   59.8870   -2.7580 O.2   198  TYR198     -0.2715
    118  CB        58.5240   59.0800   -5.9900 C.3   198  TYR198      0.0574
    119  CG        57.0580   59.4870   -6.1890 C.ar  198  TYR198     -0.0198
    120  CD1       56.6710   60.8310   -6.1670 C.ar  198  TYR198     -0.0009
    121  CD2       56.0850   58.5400   -6.5090 C.ar  198  TYR198     -0.0009
    122  CE1       55.3610   61.2200   -6.4720 C.ar  198  TYR198      0.0417
    123  CE2       54.7710   58.9200   -6.8160 C.ar  198  TYR198      0.0417
    124  CZ        54.4150   60.2600   -6.8020 C.ar  198  TYR198      0.1957
    125  OH        53.1320   60.6360   -7.1650 O.3   198  TYR198     -0.2866
    126  N         59.2230   61.1350   -3.9610 N.am  199  GLY199     -0.1940
    127  CA        58.9600   62.3340   -3.1930 C.3   199  GLY199      0.2014
    128  C         59.5080   63.5280   -3.9400 C.2   199  GLY199      0.2639
    129  O         59.6240   63.5010   -5.1610 O.2   199  GLY199     -0.2714
    130  N         59.8340   64.5850   -3.2120 N.am  200  ARG200     -0.1963
    131  CA        60.3720   65.7950   -3.8170 C.3   200  ARG200      0.1729
    132  C         61.8830   65.7590   -3.7350 C.2   200  ARG200      0.2616
    133  O         62.4390   65.3380   -2.7220 O.2   200  ARG200     -0.2715
    134  CB        59.8480   67.0290   -3.0840 C.3   200  ARG200      0.0348
    135  CG        58.3760   67.3130   -3.3080 C.3   200  ARG200      0.0492
    136  CD        57.8830   68.4040   -2.3650 C.3   200  ARG200      0.2205
    137  NE        58.6830   69.6210   -2.4650 N.pl3 200  ARG200     -0.0865
    138  CZ        58.4090   70.6450   -3.2710 C.cat 200  ARG200      0.5346
    139  NH1       57.3450   70.6170   -4.0640 N.pl3 200  ARG200      0.1354
    140  NH2       59.2050   71.7050   -3.2840 N.pl3 200  ARG200      0.1354
    141  N         62.5460   66.2480   -4.7780 N.am  201  SER201     -0.1950
    142  CA        64.0030   66.2630   -4.8040 C.3   201  SER201      0.1924
    143  C         64.5970   67.1130   -3.6730 C.2   201  SER201      0.2314
    144  O         65.7600   66.9450   -3.3230 O.2   201  SER201     -0.2863
    145  CB        64.5190   66.7380   -6.1630 C.3   201  SER201      0.2116
    146  OG        64.1360   68.0790   -6.4190 O.3   201  SER201     -0.2180
    147  N         63.4530   66.9950   -0.7150 N.3   203  ALA203     -0.1245
    148  CA        63.1550   66.1990    0.4700 C.3   203  ALA203      0.1562
    149  C         62.0510   66.6770    1.4070 C.2   203  ALA203      0.2260
    150  O         61.9480   66.1940    2.5430 O.2   203  ALA203     -0.2867
    151  CB        64.4250   65.9750    1.2570 C.3   203  ALA203      0.0290
    152  N         55.9560   62.1180    1.3780 N.3   207  ALA207     -0.1245
    153  CA        56.4950   61.3000    0.3000 C.3   207  ALA207      0.1562
    154  C         55.3520   60.3580   -0.0740 C.2   207  ALA207      0.2260
    155  O         54.4070   60.1830    0.7040 O.2   207  ALA207     -0.2867
    156  CB        57.7090   60.4850    0.7920 C.3   207  ALA207      0.0290
@<TRIPOS>BOND
     1    40    39    1
     2    33    32    1
     3    39    36    1
     4    32    34    1
     5    32    29    1
     6    35    36    1
     7    35    30   am
     8    36    37    1
     9    28    29    1
    10    29    30    1
    11    30    31    2
    12    37    38    2
    13    41    42    1
    14    42    43    1
    15    42    45    1
    16    48    46    1
    17    46    45    1
    18    46    47    1
    19    43    44    2
    20    19    22    1
    21    19    20    1
    22    19    18    1
    23    21    20    2
    24    22    23    1
    25    23    25   ar
    26    23    24   ar
    27    25    27   ar
    28    51    52    2
    29    51    50    1
    30    24    26   ar
    31   125   124    1
    32   123   124   ar
    33   123   121   ar
    34   124   122   ar
    35    27    26   ar
    36    50    53    1
    37    50    49    1
    38   121   119   ar
    39   122   120   ar
    40   146   145    1
    41   119   120   ar
    42   119   118    1
    43   145   142    1
    44    90    89    1
    45   118   115    1
    46   113   112    1
    47    53    54    1
    48     1     2    1
    49    89    88    1
    50    17    16    1
    51    55    54   ar
    52    55    57   ar
    53   111   110    2
    54   129   128    2
    55    54    56   ar
    56   142   141    1
    57   142   143    1
    58   141   132   am
    59     2     3    1
    60     2     5    1
    61    88    87    1
    62    57    59   ar
    63   115   114    1
    64   115   116    1
    65     4     3    2
    66   112   109    1
    67   110   114   am
    68   110   109    1
    69     3    12   am
    70   139   138    1
    71    16    13    1
    72   100    99    1
    73   126   116   am
    74   126   127    1
    75   128   130   am
    76   128   127    1
    77   109   108    1
    78    87    86    1
    79   131   132    1
    80   131   130    1
    81   131   134    1
    82   132   133    2
    83    99    96    1
    84   143   144    2
    85   116   117    2
    86    56    58   ar
    87    12    13    1
    88     5     6    1
    89   135   134    1
    90   135   136    1
    91   140   138    1
    92   138   137    2
    93    59    58   ar
    94    86    83    1
    95    13    14    1
    96     7     6   ar
    97     7     9   ar
    98     6     8   ar
    99   104   103    2
   100   137   136    1
   101   108   103   am
   102    96    97    1
   103    96    95    1
   104    83    84    1
   105    83    82    1
   106    91    92    1
   107    91    84   am
   108     9    11   ar
   109    97    98    2
   110   103   102    1
   111    14    15    2
   112    92    93    1
   113    84    85    2
   114     8    10   ar
   115    81    79   ar
   116    81    80   ar
   117    79    77   ar
   118    82    73   am
   119    11    10   ar
   120    93    94    2
   121   147   148    1
   122    80    78   ar
   123    77    76   ar
   124   102   101    1
   125   102   105    1
   126    73    74    2
   127    73    72    1
   128   106   105    1
   129   154   153    1
   130   154   155    2
   131   105   107    1
   132   153   156    1
   133   153   152    1
   134    78    76   ar
   135    76    75    1
   136   148   151    1
   137   148   149    1
   138    72    75    1
   139    72    71    1
   140   149   150    2
   141    71    68   am
   142    69    68    2
   143    68    67    1
   144    70    67    1
   145    67    66    1
   146    65    64    1
   147    66    62   am
   148    64    61    1
   149    62    63    2
   150    62    61    1
   151    61    60    1
