@<TRIPOS>MOLECULE
tmp/1pjsB02.pdb
 96 91 0 0 0
SMALL
GASTEIGER

@<TRIPOS>ATOM
      1  N        -30.9400  142.4900   31.1960 N.3   145  LEU145     -0.1231
      2  CA       -31.3560  143.8740   31.1930 C.3   145  LEU145      0.1693
      3  C        -32.6690  144.1410   31.9150 C.2   145  LEU145      0.2592
      4  O        -32.9100  145.2600   32.3540 O.2   145  LEU145     -0.2718
      5  CB       -31.3870  144.4010   29.7540 C.3   145  LEU145      0.0284
      6  CG       -29.9770  144.3900   29.1350 C.3   145  LEU145      0.0019
      7  CD1      -30.0000  144.9780   27.7190 C.3   145  LEU145      0.0001
      8  CD2      -29.0230  145.1850   30.0230 C.3   145  LEU145      0.0001
      9  N        -33.5150  143.1270   32.0520 N.am  146  LEU146     -0.1966
     10  CA       -34.7780  143.3270   32.7610 C.3   146  LEU146      0.1713
     11  C        -34.6800  142.8440   34.2010 C.2   146  LEU146      0.2458
     12  O        -34.6080  141.6440   34.4630 O.2   146  LEU146     -0.2730
     13  CB       -35.9210  142.6040   32.0540 C.3   146  LEU146      0.0310
     14  CG       -36.1900  143.1660   30.6650 C.3   146  LEU146      0.0022
     15  CD1      -37.3380  142.4040   30.0310 C.3   146  LEU146      0.0001
     16  CD2      -36.5200  144.6350   30.7540 C.3   146  LEU146      0.0001
     17  N        -34.6770  143.7790   35.1600 N.am  147  PRO147     -0.2727
     18  CA       -34.5790  143.3030   36.5370 C.3   147  PRO147      0.1402
     19  C        -35.6270  142.2580   36.9300 C.2   147  PRO147      0.2269
     20  O        -36.7500  142.2440   36.4300 O.2   147  PRO147     -0.2865
     21  CB       -34.6220  144.5910   37.3710 C.3   147  PRO147      0.0296
     22  CG       -35.1360  145.6380   36.4250 C.3   147  PRO147      0.0237
     23  CD       -34.5930  145.2460   35.0890 C.3   147  PRO147      0.0939
     24  N        -39.2940  143.2430   37.9860 N.3   150  LEU150     -0.1245
     25  CA       -39.8950  144.2880   37.1640 C.3   150  LEU150      0.1561
     26  C        -41.4240  144.0910   37.1360 C.2   150  LEU150      0.2260
     27  O        -42.1830  145.0570   37.0850 O.2   150  LEU150     -0.2867
     28  CB       -39.3050  144.2320   35.7390 C.3   150  LEU150      0.0270
     29  CG       -39.4000  145.3870   34.7210 C.3   150  LEU150      0.0019
     30  CD1      -40.4270  145.0490   33.6790 C.3   150  LEU150      0.0001
     31  CD2      -39.7320  146.7210   35.3990 C.3   150  LEU150      0.0001
     32  N        -41.3690  156.8900   34.1400 N.3   179  GLU179     -0.1245
     33  CA       -39.9750  156.5950   33.8190 C.3   179  GLU179      0.1567
     34  C        -39.1840  156.4180   35.1200 C.2   179  GLU179      0.2260
     35  O        -38.3010  155.5610   35.2140 O.2   179  GLU179     -0.2867
     36  CB       -39.3600  157.7250   32.9860 C.3   179  GLU179      0.0388
     37  CG       -40.0620  157.9540   31.6460 C.3   179  GLU179      0.1160
     38  CD       -39.5750  159.2090   30.9180 C.2   179  GLU179      0.3649
     39  OE1      -39.0260  160.1200   31.5820 O.co2 179  GLU179     -0.2457
     40  OE2      -39.7530  159.2900   29.6840 O.co2 179  GLU179     -0.2457
     41  N        -40.7580  153.1230   37.0580 N.3   182  PHE182     -0.1227
     42  CA       -40.3710  151.8450   36.4730 C.3   182  PHE182      0.1736
     43  C        -38.9060  151.4210   36.5960 C.2   182  PHE182      0.2595
     44  O        -38.5510  150.2970   36.2400 O.2   182  PHE182     -0.2718
     45  CB       -40.8380  151.7790   35.0160 C.3   182  PHE182      0.0547
     46  CG       -42.2980  151.4590   34.8850 C.ar  182  PHE182     -0.0202
     47  CD1      -43.1800  152.3560   34.2860 C.ar  182  PHE182     -0.0042
     48  CD2      -42.8040  150.2750   35.4140 C.ar  182  PHE182     -0.0042
     49  CE1      -44.5510  152.0780   34.2210 C.ar  182  PHE182     -0.0003
     50  CE2      -44.1630  149.9860   35.3550 C.ar  182  PHE182     -0.0003
     51  CZ       -45.0400  150.8940   34.7560 C.ar  182  PHE182     -0.0000
     52  N        -38.0550  152.3130   37.0910 N.am  183  VAL183     -0.1980
     53  CA       -36.6700  151.9450   37.3020 C.3   183  VAL183      0.1595
     54  C        -36.3950  151.9550   38.7960 C.2   183  VAL183      0.2287
     55  O        -35.2500  151.8450   39.2100 O.2   183  VAL183     -0.2864
     56  CB       -35.6700  152.8890   36.5890 C.3   183  VAL183      0.0276
     57  CG1      -35.7510  152.6660   35.0890 C.3   183  VAL183      0.0022
     58  CG2      -35.9460  154.3520   36.9590 C.3   183  VAL183      0.0022
     59  N        -27.5800  146.3300   35.9180 N.3   236  GLN236     -0.1245
     60  CA       -28.8400  147.0430   35.8720 C.3   236  GLN236      0.1566
     61  C        -28.7310  148.3940   36.5960 C.2   236  GLN236      0.2260
     62  O        -29.1980  149.4220   36.0870 O.2   236  GLN236     -0.2867
     63  CB       -29.9240  146.1590   36.4820 C.3   236  GLN236      0.0367
     64  CG       -30.1650  144.9140   35.6350 C.3   236  GLN236      0.0905
     65  CD       -30.8420  143.7920   36.3880 C.2   236  GLN236      0.2608
     66  OE1      -31.1980  143.9210   37.5660 O.2   236  GLN236     -0.2717
     67  NE2      -31.0200  142.6700   35.7100 N.am  236  GLN236     -0.0878
     68  N        -26.5780  150.8580   34.6020 N.3   239  GLN239     -0.1231
     69  CA       -27.1930  151.4510   33.4240 C.3   239  GLN239      0.1698
     70  C        -28.2490  152.4960   33.7520 C.2   239  GLN239      0.2592
     71  O        -28.7460  153.1730   32.8550 O.2   239  GLN239     -0.2718
     72  CB       -27.8130  150.3760   32.5460 C.3   239  GLN239      0.0381
     73  CG       -26.7770  149.5890   31.7800 C.3   239  GLN239      0.0905
     74  CD       -27.3680  148.9100   30.5770 C.2   239  GLN239      0.2608
     75  OE1      -27.3810  147.6810   30.4920 O.2   239  GLN239     -0.2717
     76  NE2      -27.8700  149.7040   29.6340 N.am  239  GLN239     -0.0878
     77  N        -28.5890  152.6200   35.0320 N.am  240  GLN240     -0.1979
     78  CA       -29.5950  153.5870   35.4700 C.3   240  GLN240      0.1601
     79  C        -28.9990  154.7260   36.3020 C.2   240  GLN240      0.2287
     80  O        -29.7270  155.5680   36.8190 O.2   240  GLN240     -0.2864
     81  CB       -30.6780  152.8910   36.2990 C.3   240  GLN240      0.0394
     82  CG       -31.5040  151.8870   35.5410 C.3   240  GLN240      0.0908
     83  CD       -32.2310  152.5030   34.3800 C.2   240  GLN240      0.2608
     84  OE1      -32.5290  153.7000   34.3820 O.2   240  GLN240     -0.2717
     85  NE2      -32.5430  151.6850   33.3800 N.am  240  GLN240     -0.0878
     86  N        -23.5000  153.9990   31.6080 N.3   259  ARG259     -0.1245
     87  CA       -24.4280  154.6010   30.6510 C.3   259  ARG259      0.1563
     88  C        -24.1710  155.7250   29.6280 C.2   259  ARG259      0.2260
     89  O        -25.0900  156.0460   28.8770 O.2   259  ARG259     -0.2867
     90  CB       -25.7100  154.9170   31.4240 C.3   259  ARG259      0.0307
     91  CG       -26.3860  156.2260   31.0940 C.3   259  ARG259      0.0489
     92  CD       -27.8740  156.0450   31.1510 C.3   259  ARG259      0.2205
     93  NE       -28.5140  157.0280   32.0120 N.pl3 259  ARG259     -0.0865
     94  CZ       -29.8020  156.9960   32.3330 C.cat 259  ARG259      0.5346
     95  NH1      -30.5800  156.0260   31.8620 N.pl3 259  ARG259      0.1354
     96  NH2      -30.3120  157.9330   33.1200 N.pl3 259  ARG259      0.1354
@<TRIPOS>BOND
     1     7     6    1
     2    89    88    2
     3     6     5    1
     4     6     8    1
     5    88    87    1
     6    76    74   am
     7    40    38   ar
     8     5     2    1
     9    15    14    1
    10    75    74    2
    11    74    73    1
    12    87    90    1
    13    87    86    1
    14    14    16    1
    15    14    13    1
    16    38    39   ar
    17    38    37    1
    18    91    92    1
    19    91    90    1
    20    92    93    1
    21     2     1    1
    22     2     3    1
    23    37    36    1
    24    73    72    1
    25    95    94    1
    26     3     9   am
    27     3     4    2
    28    93    94    2
    29     9    10    1
    30    13    10    1
    31    94    96    1
    32    72    69    1
    33    10    11    1
    34    71    70    2
    35    36    33    1
    36    85    83   am
    37    69    70    1
    38    69    68    1
    39    30    29    1
    40    70    77   am
    41    33    32    1
    42    33    34    1
    43    11    12    2
    44    11    17   am
    45    49    47   ar
    46    49    51   ar
    47    47    46   ar
    48    83    84    2
    49    83    82    1
    50    29    31    1
    51    29    28    1
    52    51    50   ar
    53    46    45    1
    54    46    48   ar
    55    45    42    1
    56    77    78    1
    57    23    17    1
    58    23    22    1
    59    57    56    1
    60    34    35    2
    61    17    18    1
    62    50    48   ar
    63    78    81    1
    64    78    79    1
    65    82    81    1
    66    64    65    1
    67    64    63    1
    68    67    65   am
    69    28    25    1
    70    60    59    1
    71    60    63    1
    72    60    61    1
    73    62    61    2
    74    44    43    2
    75    79    80    2
    76    65    66    2
    77    22    21    1
    78    20    19    2
    79    42    43    1
    80    42    41    1
    81    18    19    1
    82    18    21    1
    83    56    58    1
    84    56    53    1
    85    43    52   am
    86    27    26    2
    87    52    53    1
    88    26    25    1
    89    25    24    1
    90    53    54    1
    91    54    55    2
