@<TRIPOS>MOLECULE
tmp/1pjsB01.pdb
 161 154 0 0 0
SMALL
GASTEIGER

@<TRIPOS>ATOM
      1  N        -48.8730  116.2460   22.0390 N.3    18  VAL18      -0.1231
      2  CA       -48.7480  114.8490   21.6600 C.3    18  VAL18       0.1692
      3  C        -47.2750  114.5070   21.8040 C.2    18  VAL18       0.2593
      4  O        -46.4140  115.0850   21.1270 O.2    18  VAL18      -0.2718
      5  CB       -49.2440  114.5920   20.2230 C.3    18  VAL18       0.0266
      6  CG1      -49.1850  113.1060   19.9170 C.3    18  VAL18       0.0020
      7  CG2      -50.6950  115.0910   20.0750 C.3    18  VAL18       0.0020
      8  N        -46.9990  113.5920   22.7310 N.am   19  GLY19      -0.1942
      9  CA       -45.6350  113.1920   23.0160 C.3    19  GLY19       0.2014
     10  C        -45.4830  113.1990   24.5260 C.2    19  GLY19       0.2639
     11  O        -46.2180  113.9140   25.2100 O.2    19  GLY19      -0.2714
     12  N        -44.5520  112.4110   25.0560 N.am   20  GLY20      -0.1939
     13  CA       -44.3690  112.3780   26.4950 C.3    20  GLY20       0.2014
     14  C        -42.9150  112.3060   26.9140 C.2    20  GLY20       0.2639
     15  O        -42.6150  111.9770   28.0570 O.2    20  GLY20      -0.2714
     16  N        -42.0120  112.6060   25.9860 N.am   21  GLY21      -0.1939
     17  CA       -40.5940  112.5760   26.2820 C.3    21  GLY21       0.2014
     18  C        -40.1010  113.8700   26.9050 C.2    21  GLY21       0.2639
     19  O        -40.8790  114.6300   27.4840 O.2    21  GLY21      -0.2714
     20  N        -38.8090  114.1430   26.7790 N.am   22  ASP22      -0.1957
     21  CA       -38.2610  115.3480   27.3680 C.3    22  ASP22       0.1840
     22  C        -38.6540  116.6240   26.6250 C.2    22  ASP22       0.2622
     23  O        -38.8740  117.6660   27.2410 O.2    22  ASP22      -0.2715
     24  CB       -36.7380  115.2340   27.4910 C.3    22  ASP22       0.1450
     25  CG       -36.3140  114.1610   28.4840 C.2    22  ASP22       0.3671
     26  OD1      -36.2630  112.9720   28.0990 O.co2  22  ASP22      -0.2456
     27  OD2      -36.0450  114.5030   29.6570 O.co2  22  ASP22      -0.2456
     28  N        -38.7560  116.5590   25.3070 N.am   23  VAL23      -0.1963
     29  CA       -39.1510  117.7430   24.5610 C.3    23  VAL23       0.1727
     30  C        -40.5860  118.1360   24.9290 C.2    23  VAL23       0.2616
     31  O        -40.8790  119.3060   25.1560 O.2    23  VAL23      -0.2715
     32  CB       -39.0500  117.5120   23.0390 C.3    23  VAL23       0.0290
     33  CG1      -39.5870  118.7210   22.2880 C.3    23  VAL23       0.0023
     34  CG2      -37.5970  117.2830   22.6490 C.3    23  VAL23       0.0023
     35  N        -41.4750  117.1550   25.0070 N.am   24  ALA24      -0.1977
     36  CA       -42.8610  117.4300   25.3470 C.3    24  ALA24       0.1597
     37  C        -42.9910  118.0280   26.7480 C.2    24  ALA24       0.2287
     38  O        -43.8660  118.8540   26.9980 O.2    24  ALA24      -0.2864
     39  CB       -43.6850  116.1550   25.2430 C.3    24  ALA24       0.0319
     40  N        -41.0010  120.1500   28.3180 N.3    26  ARG26      -0.1245
     41  CA       -40.6610  121.5770   28.3460 C.3    26  ARG26       0.1563
     42  C        -41.8590  122.3640   27.8940 C.2    26  ARG26       0.2260
     43  O        -42.1730  123.4270   28.4400 O.2    26  ARG26      -0.2867
     44  CB       -39.4990  121.8700   27.4050 C.3    26  ARG26       0.0307
     45  CG       -38.2000  121.2930   27.8800 C.3    26  ARG26       0.0489
     46  CD       -37.3080  120.9030   26.7170 C.3    26  ARG26       0.2205
     47  NE       -36.2860  119.9760   27.1830 N.pl3  26  ARG26      -0.0865
     48  CZ       -35.3890  119.3820   26.4060 C.cat  26  ARG26       0.5346
     49  NH1      -34.5060  118.5520   26.9450 N.pl3  26  ARG26       0.1354
     50  NH2      -35.3740  119.6120   25.0990 N.pl3  26  ARG26       0.1354
     51  N        -49.7060  110.3720   24.6080 N.3    42  ALA42      -0.1231
     52  CA       -48.4970  109.6740   24.1730 C.3    42  ALA42       0.1694
     53  C        -48.5020  108.1730   24.4900 C.2    42  ALA42       0.2592
     54  O        -49.3240  107.6860   25.2680 O.2    42  ALA42      -0.2718
     55  CB       -47.2670  110.3340   24.7970 C.3    42  ALA42       0.0304
     56  N        -47.5750  107.4500   23.8690 N.am   43  LEU43      -0.1966
     57  CA       -47.4440  106.0110   24.0640 C.3    43  LEU43       0.1728
     58  C        -46.8210  105.6850   25.4170 C.2    43  LEU43       0.2616
     59  O        -47.1600  104.6910   26.0480 O.2    43  LEU43      -0.2715
     60  CB       -46.5810  105.4100   22.9490 C.3    43  LEU43       0.0311
     61  CG       -47.2550  104.4020   22.0220 C.3    43  LEU43       0.0022
     62  CD1      -48.5300  104.9950   21.4550 C.3    43  LEU43       0.0001
     63  CD2      -46.3050  104.0390   20.9170 C.3    43  LEU43       0.0001
     64  N        -45.9090  106.5380   25.8550 N.am   44  THR44      -0.1951
     65  CA       -45.2240  106.3530   27.1220 C.3    44  THR44       0.1897
     66  C        -44.8870  107.7490   27.6800 C.2    44  THR44       0.2313
     67  O        -44.6670  108.6890   26.9100 O.2    44  THR44      -0.2863
     68  CB       -43.9390  105.5070   26.9000 C.3    44  THR44       0.1794
     69  OG1      -43.4640  105.0130   28.1570 O.3    44  THR44      -0.2208
     70  CG2      -42.8440  106.3410   26.2250 C.3    44  THR44       0.0378
     71  N        -42.5420  110.1460   30.6150 N.3    46  ILE46      -0.1245
     72  CA       -41.4200  110.1470   31.5540 C.3    46  ILE46       0.1561
     73  C        -41.9800  110.5560   32.9280 C.2    46  ILE46       0.2260
     74  O        -42.9800  111.2800   33.0060 O.2    46  ILE46      -0.2867
     75  CB       -40.3070  111.1410   31.1430 C.3    46  ILE46       0.0252
     76  CG1      -40.8640  112.5650   31.1080 C.3    46  ILE46       0.0019
     77  CG2      -39.7140  110.7410   29.7880 C.3    46  ILE46       0.0019
     78  CD1      -39.8080  113.6280   30.9510 C.3    46  ILE46       0.0001
     79  N        -51.5790  106.1090   24.7720 N.3    63  GLY63      -0.1210
     80  CA       -51.9870  105.4190   23.5650 C.3    63  GLY63       0.1940
     81  C        -51.5250  106.2090   22.3540 C.2    63  GLY63       0.2454
     82  O        -50.8140  107.2060   22.5110 O.2    63  GLY63      -0.2732
     83  N        -51.8690  105.7800   21.1310 N.am   64  PRO64      -0.2717
     84  CA       -51.4410  106.5340   19.9480 C.3    64  PRO64       0.1535
     85  C        -52.2410  107.8320   19.8260 C.2    64  PRO64       0.2598
     86  O        -53.1150  108.1040   20.6500 O.2    64  PRO64      -0.2715
     87  CB       -51.7090  105.5590   18.8040 C.3    64  PRO64       0.0310
     88  CG       -52.8770  104.7710   19.3010 C.3    64  PRO64       0.0237
     89  CD       -52.5040  104.5090   20.7410 C.3    64  PRO64       0.0939
     90  N        -51.9530  108.6220   18.7980 N.am   65  PHE65      -0.1974
     91  CA       -52.6400  109.8830   18.6130 C.3    65  PHE65       0.1639
     92  C        -54.1320  109.7630   18.3300 C.2    65  PHE65       0.2290
     93  O        -54.5390  109.2600   17.2830 O.2    65  PHE65      -0.2864
     94  CB       -51.9870  110.6920   17.4890 C.3    65  PHE65       0.0560
     95  CG       -52.6790  112.0040   17.2200 C.ar   65  PHE65      -0.0200
     96  CD1      -53.1060  112.3430   15.9390 C.ar   65  PHE65      -0.0042
     97  CD2      -52.9470  112.8760   18.2680 C.ar   65  PHE65      -0.0042
     98  CE1      -53.7970  113.5400   15.7130 C.ar   65  PHE65      -0.0003
     99  CE2      -53.6290  114.0590   18.0570 C.ar   65  PHE65      -0.0003
    100  CZ       -54.0580  114.3970   16.7800 C.ar   65  PHE65      -0.0000
    101  N        -45.1010  116.9220   19.6600 N.3    79  ALA79      -0.1231
    102  CA       -43.7850  116.7320   20.2700 C.3    79  ALA79       0.1694
    103  C        -43.2630  115.2950   20.3770 C.2    79  ALA79       0.2593
    104  O        -42.6870  114.9210   21.4060 O.2    79  ALA79      -0.2718
    105  CB       -43.7640  117.3850   21.6420 C.3    79  ALA79       0.0304
    106  N        -43.4660  114.4920   19.3320 N.am   80  THR80      -0.1939
    107  CA       -42.9650  113.1220   19.3210 C.3    80  THR80       0.2028
    108  C        -41.7800  113.1490   18.3700 C.2    80  THR80       0.2642
    109  O        -41.5700  114.1430   17.6680 O.2    80  THR80      -0.2714
    110  CB       -44.0180  112.1170   18.7860 C.3    80  THR80       0.1808
    111  OG1      -44.0450  112.1560   17.3530 O.3    80  THR80      -0.2208
    112  CG2      -45.4040  112.4560   19.3250 C.3    80  THR80       0.0379
    113  N        -41.0000  112.0770   18.3300 N.am   81  ASP81      -0.1957
    114  CA       -39.8610  112.0590   17.4210 C.3    81  ASP81       0.1840
    115  C        -40.1360  111.2940   16.1390 C.2    81  ASP81       0.2622
    116  O        -39.2070  110.8590   15.4690 O.2    81  ASP81      -0.2715
    117  CB       -38.6260  111.4860   18.1130 C.3    81  ASP81       0.1450
    118  CG       -38.9780  110.4750   19.1830 C.2    81  ASP81       0.3671
    119  OD1      -39.9280  109.6810   18.9840 O.co2  81  ASP81      -0.2456
    120  OD2      -38.2990  110.4700   20.2300 O.co2  81  ASP81      -0.2456
    121  N        -41.4160  111.1320   15.8150 N.am   82  ASP82      -0.1971
    122  CA       -41.8600  110.4410   14.6010 C.3    82  ASP82       0.1709
    123  C        -42.4440  111.5120   13.6790 C.2    82  ASP82       0.2293
    124  O        -43.5480  112.0060   13.9180 O.2    82  ASP82      -0.2864
    125  CB       -42.9350  109.4140   14.9440 C.3    82  ASP82       0.1436
    126  CG       -43.4450  108.6730   13.7250 C.2    82  ASP82       0.3671
    127  OD1      -43.8630  109.3340   12.7570 O.co2  82  ASP82      -0.2456
    128  OD2      -43.4360  107.4230   13.7350 O.co2  82  ASP82      -0.2456
    129  N        -46.1050  111.0500   12.4690 N.3    85  VAL85      -0.1245
    130  CA       -47.1610  111.2400   13.4460 C.3    85  VAL85       0.1561
    131  C        -47.3730  112.7250   13.7150 C.2    85  VAL85       0.2260
    132  O        -48.5100  113.1750   13.9010 O.2    85  VAL85      -0.2867
    133  CB       -46.8250  110.5110   14.7550 C.3    85  VAL85       0.0252
    134  CG1      -47.7830  110.9330   15.8520 C.3    85  VAL85       0.0019
    135  CG2      -46.9260  109.0070   14.5360 C.3    85  VAL85       0.0019
    136  N        -49.4490  114.1390   11.0960 N.3    88  ARG88      -0.1245
    137  CA       -50.8760  113.8970   11.2020 C.3    88  ARG88       0.1563
    138  C        -51.5080  114.8270   12.2260 C.2    88  ARG88       0.2260
    139  O        -52.6580  115.2490   12.0700 O.2    88  ARG88      -0.2867
    140  CB       -51.1550  112.4290   11.5590 C.3    88  ARG88       0.0307
    141  CG       -52.6270  112.1260   11.8290 C.3    88  ARG88       0.0489
    142  CD       -52.9000  110.6280   12.0560 C.3    88  ARG88       0.2205
    143  NE       -51.8440  109.9550   12.8170 N.pl3  88  ARG88      -0.0865
    144  CZ       -52.0540  108.9680   13.6860 C.cat  88  ARG88       0.5346
    145  NH1      -53.2850  108.5370   13.9180 N.pl3  88  ARG88       0.1354
    146  NH2      -51.0300  108.4060   14.3180 N.pl3  88  ARG88       0.1354
    147  N        -43.0690  120.6350   16.6110 N.3   103  VAL103     -0.1231
    148  CA       -41.7730  120.8090   17.1420 C.3   103  VAL103      0.1692
    149  C        -40.7150  119.7590   17.0320 C.2   103  VAL103      0.2592
    150  O        -40.5620  118.8250   17.8650 O.2   103  VAL103     -0.2718
    151  CB       -41.8880  121.4530   18.5500 C.3   103  VAL103      0.0266
    152  CG1      -40.7040  121.1300   19.4130 C.3   103  VAL103      0.0020
    153  CG2      -41.9250  122.9740   18.3910 C.3   103  VAL103      0.0020
    154  N        -40.1040  119.9500   15.8610 N.am  104  ASP104     -0.1974
    155  CA       -38.8950  119.4020   15.2500 C.3   104  ASP104      0.1709
    156  C        -38.8770  120.4210   14.1030 C.2   104  ASP104      0.2293
    157  O        -37.9180  121.1740   14.0000 O.2   104  ASP104     -0.2864
    158  CB       -38.6710  117.9030   14.7620 C.3   104  ASP104      0.1436
    159  CG       -39.8520  117.1810   14.1800 C.2   104  ASP104      0.3671
    160  OD1      -40.6090  117.6900   13.3290 O.co2 104  ASP104     -0.2456
    161  OD2      -39.9880  115.9940   14.5600 O.co2 104  ASP104     -0.2456
@<TRIPOS>BOND
     1   136   137    1
     2   137   140    1
     3   137   138    1
     4   140   141    1
     5   141   142    1
     6   142   143    1
     7   139   138    2
     8   129   130    1
     9   127   126   ar
    10   143   144    2
    11   160   159   ar
    12   130   131    1
    13   130   133    1
    14   123   124    2
    15   123   122    1
    16   144   145    1
    17   144   146    1
    18   131   132    2
    19   126   128   ar
    20   126   125    1
    21   157   156    2
    22   156   155    1
    23   159   161   ar
    24   159   158    1
    25   135   133    1
    26   122   125    1
    27   122   121    1
    28   133   134    1
    29   158   155    1
    30   155   154    1
    31   116   115    2
    32    98    96   ar
    33    98   100   ar
    34   121   115   am
    35   154   149   am
    36    96    95   ar
    37   115   114    1
    38   147   148    1
    39   100    99   ar
    40   149   148    1
    41   149   150    2
    42   148   151    1
    43    95    94    1
    44    95    97   ar
    45    93    92    2
    46   111   110    1
    47   114   117    1
    48   114   113    1
    49    94    91    1
    50   109   108    2
    51    99    97   ar
    52   117   118    1
    53   113   108   am
    54    92    91    1
    55   108   107    1
    56   153   151    1
    57   151   152    1
    58    91    90    1
    59   110   107    1
    60   110   112    1
    61    90    85   am
    62    87    88    1
    63    87    84    1
    64   119   118   ar
    65   118   120   ar
    66    88    89    1
    67   107   106    1
    68   106   103   am
    69   101   102    1
    70    85    84    1
    71    85    86    2
    72     6     5    1
    73    84    83    1
    74     7     5    1
    75     5     2    1
    76   102   103    1
    77   102   105    1
    78   103   104    2
    79    89    83    1
    80    63    61    1
    81     4     3    2
    82    83    81   am
    83    62    61    1
    84     2     3    1
    85     2     1    1
    86     3     8   am
    87    61    60    1
    88    33    32    1
    89    81    82    2
    90    81    80    1
    91    34    32    1
    92     8     9    1
    93    60    57    1
    94     9    10    1
    95    32    29    1
    96    80    79    1
    97    56    57    1
    98    56    53   am
    99    57    58    1
   100    52    53    1
   101    52    51    1
   102    52    55    1
   103    53    54    2
   104    10    12   am
   105    10    11    2
   106    29    30    1
   107    29    28    1
   108    30    35   am
   109    30    31    2
   110    35    36    1
   111    12    13    1
   112    50    48    1
   113    39    36    1
   114    28    22   am
   115    36    37    1
   116    58    64   am
   117    58    59    2
   118    64    65    1
   119    16    17    1
   120    16    14   am
   121    70    68    1
   122    17    18    1
   123    48    49    1
   124    48    47    2
   125    13    14    1
   126    22    23    2
   127    22    21    1
   128    46    47    1
   129    46    45    1
   130    37    38    2
   131    20    18   am
   132    20    21    1
   133    68    65    1
   134    68    69    1
   135    18    19    2
   136    67    66    2
   137    14    15    2
   138    65    66    1
   139    21    24    1
   140    44    45    1
   141    44    41    1
   142    24    25    1
   143    42    41    1
   144    42    43    2
   145    26    25   ar
   146    40    41    1
   147    25    27   ar
   148    77    75    1
   149    71    72    1
   150    78    76    1
   151    76    75    1
   152    75    72    1
   153    72    73    1
   154    73    74    2
