@<TRIPOS>MOLECULE
tmp/1pjtB00.pdb
 137 131 0 0 0
SMALL
GASTEIGER

@<TRIPOS>ATOM
      1  N        -13.1740  141.0600   40.6920 N.3   225  PRO225     -0.2116
      2  CA       -11.7360  141.2840   40.5520 C.3   225  PRO225      0.1372
      3  C        -11.2310  141.8490   39.2310 C.2   225  PRO225      0.2244
      4  O        -10.0490  142.1760   39.1180 O.2   225  PRO225     -0.2868
      5  CB       -11.1480  139.9120   40.8610 C.3   225  PRO225      0.0268
      6  CG       -12.2050  138.9800   40.3720 C.3   225  PRO225      0.0207
      7  CD       -13.4710  139.6270   40.8620 C.3   225  PRO225      0.0892
      8  N         -9.3200  149.8780   41.0230 N.3   250  LEU250     -0.1245
      9  CA        -9.4540  148.4240   40.9070 C.3   250  LEU250      0.1561
     10  C        -10.7180  147.9500   40.1820 C.2   250  LEU250      0.2260
     11  O        -11.0470  146.7580   40.1730 O.2   250  LEU250     -0.2867
     12  CB        -9.3340  147.7480   42.2830 C.3   250  LEU250      0.0270
     13  CG        -7.9150  147.7500   42.8750 C.3   250  LEU250      0.0019
     14  CD1       -7.8760  146.8610   44.1170 C.3   250  LEU250      0.0001
     15  CD2       -6.9010  147.2550   41.8310 C.3   250  LEU250      0.0001
     16  N        -14.0680  147.8170   43.6250 N.3   299  GLY299     -0.1210
     17  CA       -13.3250  146.6810   43.1180 C.3   299  GLY299      0.1956
     18  C        -13.6650  145.4830   43.9860 C.2   299  GLY299      0.2612
     19  O        -13.7640  145.5980   45.2090 O.2   299  GLY299     -0.2717
     20  N        -13.8700  144.3320   43.3620 N.am  300  GLY300     -0.1942
     21  CA       -14.2010  143.1390   44.1180 C.3   300  GLY300      0.2014
     22  C        -15.5150  143.2290   44.8670 C.2   300  GLY300      0.2638
     23  O        -16.5760  143.4100   44.2690 O.2   300  GLY300     -0.2714
     24  N        -15.4340  143.0900   46.1870 N.am  301  ASP301     -0.1971
     25  CA       -16.6060  143.1480   47.0560 C.3   301  ASP301      0.1709
     26  C        -16.6130  144.3790   47.9760 C.2   301  ASP301      0.2293
     27  O        -15.5980  144.7250   48.5800 O.2   301  ASP301     -0.2864
     28  CB       -16.6970  141.8810   47.8990 C.3   301  ASP301      0.1436
     29  CG       -17.8470  141.9220   48.8760 C.2   301  ASP301      0.3671
     30  OD1      -17.7460  142.6570   49.8820 O.co2 301  ASP301     -0.2456
     31  OD2      -18.8610  141.2300   48.6290 O.co2 301  ASP301     -0.2456
     32  N        -15.5730  143.7820   51.8800 N.3   304  ILE304     -0.1231
     33  CA       -14.3730  142.9900   52.1220 C.3   304  ILE304      0.1692
     34  C        -13.1170  143.8110   51.8520 C.2   304  ILE304      0.2592
     35  O        -12.6180  143.8480   50.7300 O.2   304  ILE304     -0.2718
     36  CB       -14.3620  141.7170   51.2350 C.3   304  ILE304      0.0266
     37  CG1      -15.4270  140.7400   51.7390 C.3   304  ILE304      0.0019
     38  CG2      -12.9910  141.0600   51.2480 C.3   304  ILE304      0.0020
     39  CD1      -15.4850  139.4330   50.9820 C.3   304  ILE304      0.0001
     40  N        -12.6050  144.4690   52.8870 N.am  305  PHE305     -0.1962
     41  CA       -11.4150  145.2900   52.7380 C.3   305  PHE305      0.1771
     42  C        -11.6440  146.4060   51.7100 C.2   305  PHE305      0.2620
     43  O        -10.7200  146.8670   51.0420 O.2   305  PHE305     -0.2715
     44  CB       -10.2370  144.4110   52.3250 C.3   305  PHE305      0.0574
     45  CG        -9.8020  143.4390   53.3890 C.ar  305  PHE305     -0.0200
     46  CD1       -9.4420  142.1380   53.0510 C.ar  305  PHE305     -0.0042
     47  CD2       -9.7500  143.8200   54.7280 C.ar  305  PHE305     -0.0042
     48  CE1       -9.0400  141.2250   54.0280 C.ar  305  PHE305     -0.0003
     49  CE2       -9.3480  142.9160   55.7150 C.ar  305  PHE305     -0.0003
     50  CZ        -8.9920  141.6120   55.3630 C.ar  305  PHE305     -0.0000
     51  N        -12.8930  146.8440   51.5980 N.am  306  GLY306     -0.1954
     52  CA       -13.2180  147.9100   50.6680 C.3   306  GLY306      0.1869
     53  C        -13.7310  149.1780   51.3380 C.2   306  GLY306      0.2309
     54  O        -14.1000  150.1220   50.6470 O.2   306  GLY306     -0.2863
     55  N        -15.3500  138.5980   45.3920 N.3   329  THR329     -0.1203
     56  CA       -14.1530  139.1290   46.0300 C.3   329  THR329      0.1994
     57  C        -12.8810  138.4600   45.5210 C.2   329  THR329      0.2617
     58  O        -12.8880  137.2840   45.1790 O.2   329  THR329     -0.2717
     59  CB       -14.2420  139.0180   47.5780 C.3   329  THR329      0.1784
     60  OG1      -13.1590  139.7480   48.1720 O.3   329  THR329     -0.2211
     61  CG2      -14.2000  137.5750   48.0220 C.3   329  THR329      0.0376
     62  N        -11.7980  139.2340   45.4810 N.am  330  ALA330     -0.1979
     63  CA       -10.4900  138.7980   44.9890 C.3   330  ALA330      0.1597
     64  C        -10.1140  137.3640   45.3170 C.2   330  ALA330      0.2287
     65  O         -9.5850  136.6340   44.4750 O.2   330  ALA330     -0.2864
     66  CB        -9.4130  139.7360   45.5020 C.3   330  ALA330      0.0319
     67  N         -9.4940  134.7720   42.2820 N.3   334  CYS334     -0.1235
     68  CA        -8.1620  134.2400   42.0490 C.3   334  CYS334      0.1677
     69  C         -8.1140  132.7510   42.3290 C.2   334  CYS334      0.2270
     70  O         -7.3290  132.0280   41.7140 O.2   334  CYS334     -0.2867
     71  CB        -7.1400  134.9630   42.9200 C.3   334  CYS334      0.0956
     72  SG        -7.0110  136.7430   42.6180 S.3   334  CYS334     -0.0801
     73  N         -4.3740  139.9490   51.5850 N.3   379  TYR379     -0.1227
     74  CA        -4.7180  141.0580   50.7110 C.3   379  TYR379      0.1736
     75  C         -3.6910  142.1240   51.0250 C.2   379  TYR379      0.2595
     76  O         -3.3250  142.3020   52.1840 O.2   379  TYR379     -0.2718
     77  CB        -6.0930  141.6360   51.0380 C.3   379  TYR379      0.0548
     78  CG        -7.2720  140.8550   50.5130 C.ar  379  TYR379     -0.0200
     79  CD1       -7.4820  139.5310   50.8970 C.ar  379  TYR379     -0.0009
     80  CD2       -8.2020  141.4560   49.6610 C.ar  379  TYR379     -0.0009
     81  CE1       -8.5970  138.8210   50.4470 C.ar  379  TYR379      0.0417
     82  CE2       -9.3150  140.7640   49.2050 C.ar  379  TYR379      0.0417
     83  CZ        -9.5140  139.4440   49.6000 C.ar  379  TYR379      0.1957
     84  OH       -10.6220  138.7430   49.1630 O.3   379  TYR379     -0.2866
     85  N         -3.2220  142.8260   50.0010 N.am  380  MET380     -0.1979
     86  CA        -2.2550  143.9060   50.1870 C.3   380  MET380      0.1605
     87  C         -0.9800  143.5010   50.9200 C.2   380  MET380      0.2287
     88  O         -0.4410  144.2880   51.6920 O.2   380  MET380     -0.2864
     89  CB        -2.9300  145.0540   50.9450 C.3   380  MET380      0.0413
     90  CG        -4.2820  145.4430   50.3570 C.3   380  MET380      0.0598
     91  SD        -5.1670  146.6880   51.3180 S.3   380  MET380     -0.1393
     92  CE        -6.3040  145.6690   52.2650 C.3   380  MET380      0.0692
     93  N         -1.2560  135.5050   43.1030 N.3   406  VAL406     -0.1245
     94  CA        -2.1270  135.6990   41.9450 C.3   406  VAL406      0.1561
     95  C         -2.3480  137.1830   41.6810 C.2   406  VAL406      0.2260
     96  O         -3.0630  137.8640   42.4180 O.2   406  VAL406     -0.2867
     97  CB        -3.4990  135.0090   42.1400 C.3   406  VAL406      0.0252
     98  CG1       -4.4450  135.3740   40.9930 C.3   406  VAL406      0.0019
     99  CG2       -3.3040  133.4990   42.1970 C.3   406  VAL406      0.0019
    100  N         -3.5680  140.3130   39.1780 N.3   408  ASN408     -0.1225
    101  CA        -4.6130  140.6060   38.2020 C.3   408  ASN408      0.1785
    102  C         -5.5090  139.3800   37.9700 C.2   408  ASN408      0.2597
    103  O         -5.8210  139.0230   36.8340 O.2   408  ASN408     -0.2718
    104  CB        -4.0060  141.0820   36.8680 C.3   408  ASN408      0.1169
    105  CG        -3.3390  142.4550   36.9740 C.2   408  ASN408      0.2627
    106  OD1       -3.8850  143.3900   37.5670 O.2   408  ASN408     -0.2716
    107  ND2       -2.1600  142.5790   36.3860 N.am  408  ASN408     -0.0877
    108  N         -5.9280  138.7480   39.0600 N.am  409  GLY409     -0.1957
    109  CA        -6.7720  137.5720   38.9690 C.3   409  GLY409      0.1869
    110  C         -8.0100  137.7770   38.1220 C.2   409  GLY409      0.2309
    111  O         -8.6000  138.8610   38.1380 O.2   409  GLY409     -0.2863
    112  N          1.3260  144.8010   42.0140 N.3   433  SER433     -0.1203
    113  CA        -0.0440  144.9250   42.4760 C.3   433  SER433      0.2005
    114  C         -0.9910  145.1200   41.3010 C.2   433  SER433      0.2461
    115  O         -0.6190  145.6830   40.2730 O.2   433  SER433     -0.2732
    116  CB        -0.1820  146.0890   43.4440 C.3   433  SER433      0.2103
    117  OG        -0.5360  145.5910   44.7200 O.3   433  SER433     -0.2182
    118  N         -2.2290  144.6340   41.4340 N.am  434  PRO434     -0.2717
    119  CA        -2.7230  143.9400   42.6250 C.3   434  PRO434      0.1535
    120  C         -2.5600  142.4220   42.5930 C.2   434  PRO434      0.2598
    121  O         -2.7410  141.7860   41.5560 O.2   434  PRO434     -0.2715
    122  CB        -4.1800  144.3620   42.6890 C.3   434  PRO434      0.0310
    123  CG        -4.5480  144.6560   41.2340 C.3   434  PRO434      0.0237
    124  CD        -3.2820  144.7620   40.4180 C.3   434  PRO434      0.0939
    125  N         -2.2060  141.8470   43.7380 N.am  435  ALA435     -0.1964
    126  CA        -2.0480  140.4030   43.8440 C.3   435  ALA435      0.1728
    127  C         -2.4580  139.9390   45.2310 C.2   435  ALA435      0.2616
    128  O         -2.6180  140.7470   46.1420 O.2   435  ALA435     -0.2715
    129  CB        -0.6080  140.0050   43.5650 C.3   435  ALA435      0.0334
    130  N         -2.6530  138.6330   45.3750 N.am  436  LEU436     -0.1977
    131  CA        -3.0060  138.0430   46.6600 C.3   436  LEU436      0.1596
    132  C         -1.9570  136.9860   46.9730 C.2   436  LEU436      0.2287
    133  O         -1.3650  136.4050   46.0600 O.2   436  LEU436     -0.2864
    134  CB        -4.3810  137.3750   46.6020 C.3   436  LEU436      0.0297
    135  CG        -5.6220  138.2650   46.5350 C.3   436  LEU436      0.0022
    136  CD1       -6.8600  137.3950   46.3230 C.3   436  LEU436      0.0001
    137  CD2       -5.7430  139.0790   47.8210 C.3   436  LEU436      0.0001
@<TRIPOS>BOND
     1   107   105   am
     2   103   102    2
     3   104   105    1
     4   104   101    1
     5   105   106    2
     6   102   101    1
     7   102   108   am
     8   110   111    2
     9   110   109    1
    10   101   100    1
    11   109   108    1
    12     4     3    2
    13     3     2    1
    14    11    10    2
    15    10     9    1
    16   115   114    2
    17     6     5    1
    18     6     7    1
    19   124   123    1
    20   124   118    1
    21     2     1    1
    22     2     5    1
    23     1     7    1
    24     9     8    1
    25     9    12    1
    26    98    97    1
    27   123   122    1
    28   114   118   am
    29   114   113    1
    30   118   119    1
    31   121   120    2
    32    95    94    1
    33    95    96    2
    34    70    69    2
    35    15    13    1
    36    94    97    1
    37    94    93    1
    38   112   113    1
    39    68    67    1
    40    68    69    1
    41    68    71    1
    42    97    99    1
    43    12    13    1
    44   113   116    1
    45   120   119    1
    46   120   125   am
    47    72    71    1
    48   119   122    1
    49    13    14    1
    50    17    16    1
    51    17    18    1
    52    20    18   am
    53    20    21    1
    54   116   117    1
    55   129   126    1
    56   125   126    1
    57   126   127    1
    58    18    19    2
    59    21    22    1
    60    23    22    2
    61    65    64    2
    62    22    24   am
    63    63    64    1
    64    63    62    1
    65    63    66    1
    66    58    57    2
    67   127   130   am
    68   127   128    2
    69   130   131    1
    70    55    56    1
    71    62    57   am
    72    57    56    1
    73    56    59    1
    74   133   132    2
    75    24    25    1
    76   136   135    1
    77   135   134    1
    78   135   137    1
    79   134   131    1
    80   131   132    1
    81    25    28    1
    82    25    26    1
    83    59    61    1
    84    59    60    1
    85    28    29    1
    86    26    27    2
    87    31    29   ar
    88    29    30   ar
    89    84    83    1
    90    82    83   ar
    91    82    80   ar
    92    83    81   ar
    93    80    78   ar
    94    85    86    1
    95    85    75   am
    96    86    87    1
    97    86    89    1
    98    90    89    1
    99    90    91    1
   100    81    79   ar
   101    78    79   ar
   102    78    77    1
   103    54    53    2
   104    52    53    1
   105    52    51    1
   106    74    75    1
   107    74    77    1
   108    74    73    1
   109    35    34    2
   110    87    88    2
   111    39    37    1
   112    75    76    2
   113    43    42    2
   114    36    38    1
   115    36    37    1
   116    36    33    1
   117    91    92    1
   118    51    42   am
   119    42    41    1
   120    34    33    1
   121    34    40   am
   122    32    33    1
   123    44    41    1
   124    44    45    1
   125    41    40    1
   126    46    45   ar
   127    46    48   ar
   128    45    47   ar
   129    48    50   ar
   130    47    49   ar
   131    50    49   ar
