@<TRIPOS>MOLECULE
tmp/1pk0A00.pdb
 186 177 0 0 0
SMALL
GASTEIGER

@<TRIPOS>ATOM
      1  N         37.3300   74.2780   35.6850 N.3    38  ARG38      -0.1231
      2  CA        35.8870   74.1390   35.5920 C.3    38  ARG38       0.1679
      3  C         35.3840   75.3280   36.3980 C.2    38  ARG38       0.2434
      4  O         36.1150   75.8750   37.2220 O.2    38  ARG38      -0.2733
      5  CB        35.4140   72.8370   36.2270 C.3    38  ARG38       0.0321
      6  CG        35.8580   71.5960   35.5110 C.3    38  ARG38       0.0489
      7  CD        34.8770   70.4360   35.7330 C.3    38  ARG38       0.2205
      8  NE        34.6080   70.2090   37.1500 N.pl3  38  ARG38      -0.0865
      9  CZ        33.5090   70.6130   37.7740 C.cat  38  ARG38       0.5346
     10  NH1       32.5610   71.2540   37.1200 N.pl3  38  ARG38       0.1354
     11  NH2       33.3650   70.3910   39.0650 N.pl3  38  ARG38       0.1354
     12  N         34.1300   75.7330   36.1950 N.am   39  PRO39      -0.2729
     13  CA        33.5900   76.8770   36.9240 C.3    39  PRO39       0.1401
     14  C         33.8810   76.8080   38.3980 C.2    39  PRO39       0.2269
     15  O         34.0810   75.7390   38.9260 O.2    39  PRO39      -0.2865
     16  CB        32.1080   76.7790   36.6490 C.3    39  PRO39       0.0296
     17  CG        32.0420   76.0420   35.3270 C.3    39  PRO39       0.0237
     18  CD        33.0530   74.9830   35.5340 C.3    39  PRO39       0.0939
     19  N         32.5170   78.2260   42.1920 N.3    41  ASN41      -0.1240
     20  CA        31.4260   78.8980   42.8530 C.3    41  ASN41       0.1653
     21  C         31.7790   80.3730   43.0700 C.2    41  ASN41       0.2266
     22  O         32.6690   80.7110   43.8520 O.2    41  ASN41      -0.2867
     23  CB        31.1310   78.1830   44.1730 C.3    41  ASN41       0.1155
     24  CG        29.9150   78.7130   44.8540 C.2    41  ASN41       0.2627
     25  OD1       29.0070   79.2160   44.2150 O.2    41  ASN41      -0.2716
     26  ND2       29.8790   78.5940   46.1580 N.am   41  ASN41      -0.0877
     27  N         37.9300   72.1040   49.7490 N.3    55  LYS55      -0.1231
     28  CA        37.6240   70.6920   49.8700 C.3    55  LYS55       0.1693
     29  C         38.3660   69.7440   48.9440 C.2    55  LYS55       0.2593
     30  O         38.4060   69.9240   47.7190 O.2    55  LYS55      -0.2718
     31  CB        36.1210   70.4660   49.7010 C.3    55  LYS55       0.0285
     32  CG        35.5490   71.0850   48.4670 C.3    55  LYS55       0.0035
     33  CD        34.6770   70.1380   47.6870 C.3    55  LYS55       0.0206
     34  CE        33.2100   70.4950   47.7280 C.3    55  LYS55       0.1093
     35  NZ        32.4320   69.7360   46.6800 N.3    55  LYS55      -0.1314
     36  N         38.9320   68.7100   49.5630 N.am   56  GLY56      -0.1942
     37  CA        39.6490   67.6860   48.8230 C.3    56  GLY56       0.2014
     38  C         38.7430   66.5080   48.4770 C.2    56  GLY56       0.2638
     39  O         37.5430   66.5360   48.7550 O.2    56  GLY56      -0.2714
     40  N         39.3050   65.4600   47.8870 N.am   57  LEU57      -0.1977
     41  CA        38.5050   64.3030   47.5140 C.3    57  LEU57       0.1596
     42  C         37.8430   63.5990   48.6860 C.2    57  LEU57       0.2287
     43  O         37.0150   62.7150   48.5020 O.2    57  LEU57      -0.2864
     44  CB        39.3580   63.2990   46.7450 C.3    57  LEU57       0.0297
     45  CG        39.8410   63.7680   45.3760 C.3    57  LEU57       0.0022
     46  CD1       40.3770   62.5980   44.5910 C.3    57  LEU57       0.0001
     47  CD2       38.6770   64.3710   44.6270 C.3    57  LEU57       0.0001
     48  N         35.9450   65.0080   50.5510 N.3    59  VAL59      -0.1231
     49  CA        34.7020   65.7600   50.7460 C.3    59  VAL59       0.1692
     50  C         34.0330   65.9480   49.4000 C.2    59  VAL59       0.2592
     51  O         34.5480   66.6900   48.5490 O.2    59  VAL59      -0.2718
     52  CB        34.9320   67.1420   51.3410 C.3    59  VAL59       0.0266
     53  CG1       33.6330   67.8840   51.3580 C.3    59  VAL59       0.0020
     54  CG2       35.4750   67.0220   52.7500 C.3    59  VAL59       0.0020
     55  N         32.8960   65.2740   49.2050 N.am   60  HIS60      -0.1976
     56  CA        32.1670   65.3370   47.9370 C.3    60  HIS60       0.1656
     57  C         30.8570   66.0610   48.0690 C.2    60  HIS60       0.2291
     58  O         30.0220   65.9900   47.1800 O.2    60  HIS60      -0.2864
     59  CB        31.8800   63.9390   47.4030 C.3    60  HIS60       0.0771
     60  CG        33.0590   63.2770   46.7570 C.ar   60  HIS60       0.0820
     61  ND1       34.3240   63.2870   47.3080 N.ar   60  HIS60      -0.2267
     62  CD2       33.1520   62.5440   45.6230 C.ar   60  HIS60       0.1154
     63  CE1       35.1440   62.5900   46.5430 C.ar   60  HIS60       0.1986
     64  NE2       34.4570   62.1270   45.5140 N.ar   60  HIS60      -0.2212
     65  N         28.3470   69.0790   47.8350 N.3    62  LYS62      -0.1231
     66  CA        28.4230   70.2370   46.9520 C.3    62  LYS62       0.1693
     67  C         28.2910   71.5430   47.7130 C.2    62  LYS62       0.2592
     68  O         27.5470   71.6320   48.6910 O.2    62  LYS62      -0.2718
     69  CB        27.3550   70.1480   45.8710 C.3    62  LYS62       0.0285
     70  CG        27.5010   68.9040   45.0150 C.3    62  LYS62       0.0035
     71  CD        28.9160   68.7980   44.4210 C.3    62  LYS62       0.0206
     72  CE        29.2190   67.3750   43.9280 C.3    62  LYS62       0.1093
     73  NZ        28.1610   66.8610   42.9970 N.3    62  LYS62      -0.1314
     74  N         29.0290   72.5540   47.2720 N.am   63  SER63      -0.1952
     75  CA        28.9970   73.8630   47.9150 C.3    63  SER63       0.1924
     76  C         27.6370   74.5280   47.7300 C.2    63  SER63       0.2314
     77  O         26.8030   74.0570   46.9700 O.2    63  SER63      -0.2863
     78  CB        30.0640   74.7610   47.3090 C.3    63  SER63       0.2116
     79  OG        29.9410   74.7750   45.8970 O.3    63  SER63      -0.2180
     80  N         23.8390   74.1600   46.4930 N.3    81  LYS81      -0.1245
     81  CA        23.4040   74.5530   45.1700 C.3    81  LYS81       0.1561
     82  C         22.4180   73.5180   44.6570 C.2    81  LYS81       0.2260
     83  O         21.5550   73.8290   43.8500 O.2    81  LYS81      -0.2867
     84  CB        24.5960   74.6220   44.2350 C.3    81  LYS81       0.0271
     85  CG        25.2360   73.2850   44.0300 C.3    81  LYS81       0.0035
     86  CD        26.3980   73.3230   43.0630 C.3    81  LYS81       0.0206
     87  CE        27.6670   73.8320   43.7160 C.3    81  LYS81       0.1093
     88  NZ        28.8770   73.4710   42.8980 N.3    81  LYS81      -0.1314
     89  N         34.6780   75.7910   48.2680 N.3   199  ALA199     -0.1231
     90  CA        34.9880   75.2840   46.9430 C.3   199  ALA199      0.1694
     91  C         36.4390   75.4600   46.6160 C.2   199  ALA199      0.2592
     92  O         37.0780   76.4260   47.0100 O.2   199  ALA199     -0.2718
     93  CB        34.1390   75.9740   45.9070 C.3   199  ALA199      0.0304
     94  N         36.9390   74.5260   45.8430 N.am  200  ASP200     -0.1974
     95  CA        38.3270   74.5210   45.4410 C.3   200  ASP200      0.1709
     96  C         38.4230   74.8510   43.9520 C.2   200  ASP200      0.2293
     97  O         37.4150   75.1490   43.3060 O.2   200  ASP200     -0.2864
     98  CB        38.8640   73.1290   45.6560 C.3   200  ASP200      0.1436
     99  CG        38.2750   72.1430   44.6650 C.2   200  ASP200      0.3671
    100  OD1       37.0220   72.0790   44.5310 O.co2 200  ASP200     -0.2456
    101  OD2       39.0670   71.4360   44.0050 O.co2 200  ASP200     -0.2456
    102  N         38.7980   73.3640   40.5350 N.3   202  ASP202     -0.1239
    103  CA        38.8070   72.0770   39.8750 C.3   202  ASP202      0.1674
    104  C         39.4010   72.2360   38.4810 C.2   202  ASP202      0.2266
    105  O         38.8840   72.9840   37.6520 O.2   202  ASP202     -0.2867
    106  CB        37.3800   71.5040   39.7790 C.3   202  ASP202      0.1410
    107  CG        36.8870   70.8870   41.0830 C.2   202  ASP202      0.3668
    108  OD1       36.2240   71.5670   41.8880 O.co2 202  ASP202     -0.2456
    109  OD2       37.1620   69.6940   41.3060 O.co2 202  ASP202     -0.2456
    110  N         43.4400   61.7360   43.8220 N.3   256  GLY256     -0.1210
    111  CA        42.6190   61.1030   42.8120 C.3   256  GLY256      0.1956
    112  C         43.4650   60.5210   41.7150 C.2   256  GLY256      0.2612
    113  O         44.6270   60.2230   41.9180 O.2   256  GLY256     -0.2717
    114  N         42.8910   60.3560   40.5390 N.am  257  THR257     -0.1952
    115  CA        43.6390   59.7990   39.4300 C.3   257  THR257      0.1897
    116  C         44.2460   60.8790   38.5770 C.2   257  THR257      0.2313
    117  O         43.5300   61.5910   37.8930 O.2   257  THR257     -0.2863
    118  CB        42.7490   58.9650   38.5240 C.3   257  THR257      0.1794
    119  OG1       42.3320   57.7830   39.2120 O.3   257  THR257     -0.2208
    120  CG2       43.4790   58.5980   37.2740 C.3   257  THR257      0.0378
    121  N         43.4850   67.7580   43.3580 N.3   286  HIS286     -0.1226
    122  CA        43.5140   66.4570   42.7680 C.3   286  HIS286      0.1752
    123  C         43.6240   66.5030   41.2970 C.2   286  HIS286      0.2597
    124  O         43.6400   67.5470   40.6580 O.2   286  HIS286     -0.2718
    125  CB        42.2560   65.6650   43.1180 C.3   286  HIS286      0.0759
    126  CG        40.9930   66.4690   42.7390 C.ar  286  HIS286      0.0818
    127  ND1       40.6310   66.7430   41.4360 N.ar  286  HIS286     -0.2268
    128  CD2       40.0650   67.0710   43.5200 C.ar  286  HIS286      0.1154
    129  CE1       39.5340   67.4800   41.4320 C.ar  286  HIS286      0.1986
    130  NE2       39.1680   67.6960   42.6850 N.ar  286  HIS286     -0.2212
    131  N         43.7260   65.2870   40.8440 N.am  287  GLY287     -0.1942
    132  CA        43.7920   65.0630   39.4650 C.3   287  GLY287      0.2014
    133  C         42.7970   66.0070   38.8610 C.2   287  GLY287      0.2640
    134  O         42.0580   66.7300   39.5380 O.2   287  GLY287     -0.2714
    135  N         42.8080   65.9420   37.5600 N.am  288  THR288     -0.1936
    136  CA        41.9360   66.7700   36.7720 C.3   288  THR288      0.2028
    137  C         40.6090   66.0610   36.3780 C.2   288  THR288      0.2642
    138  O         40.3860   64.9120   36.7360 O.2   288  THR288     -0.2714
    139  CB        42.6980   67.1880   35.5240 C.3   288  THR288      0.1808
    140  OG1       42.7250   66.1110   34.5830 O.3   288  THR288     -0.2208
    141  CG2       44.1220   67.5720   35.9000 C.3   288  THR288      0.0379
    142  N         39.7080   66.7990   35.6240 N.am  289  GLU289     -0.1976
    143  CA        38.3730   66.2980   35.1930 C.3   289  GLU289      0.1602
    144  C         38.4180   65.2060   34.1310 C.2   289  GLU289      0.2287
    145  O         37.6550   64.2560   34.2240 O.2   289  GLU289     -0.2864
    146  CB        37.4850   67.4170   34.6480 C.3   289  GLU289      0.0415
    147  CG        36.0960   66.9440   34.2380 C.3   289  GLU289      0.1163
    148  CD        35.2960   66.4560   35.4320 C.2   289  GLU289      0.3649
    149  OE1       35.4900   67.0190   36.5240 O.co2 289  GLU289     -0.2457
    150  OE2       34.4680   65.5250   35.2720 O.co2 289  GLU289     -0.2457
    151  N         39.8600   62.7700   33.9460 N.3   291  ASP291     -0.1225
    152  CA        40.1080   61.4790   34.5590 C.3   291  ASP291      0.1805
    153  C         39.0030   61.1730   35.5470 C.2   291  ASP291      0.2597
    154  O         39.0170   60.1590   36.2320 O.2   291  ASP291     -0.2718
    155  CB        41.4470   61.4790   35.2610 C.3   291  ASP291      0.1424
    156  CG        42.5860   61.5220   34.2970 C.2   291  ASP291      0.3668
    157  OD1       42.7780   60.5080   33.5970 O.co2 291  ASP291     -0.2456
    158  OD2       43.2770   62.5670   34.2360 O.co2 291  ASP291     -0.2456
    159  N         38.0400   62.0730   35.6100 N.am  292  ASN292     -0.1974
    160  CA        36.8990   61.9210   36.4860 C.3   292  ASN292      0.1688
    161  C         35.8850   61.1600   35.6410 C.2   292  ASN292      0.2292
    162  O         34.9100   61.7300   35.1580 O.2   292  ASN292     -0.2864
    163  CB        36.4010   63.3140   36.8640 C.3   292  ASN292      0.1181
    164  CG        35.1800   63.2760   37.7020 C.2   292  ASN292      0.2629
    165  OD1       35.1600   62.6250   38.7470 O.2   292  ASN292     -0.2716
    166  ND2       34.1420   63.9850   37.2690 N.am  292  ASN292     -0.0877
    167  N         31.8200   60.1370   37.5530 N.3   295  PHE295     -0.1241
    168  CA        30.8040   61.1510   37.6970 C.3   295  PHE295      0.1605
    169  C         31.2400   62.3850   36.9450 C.2   295  PHE295      0.2264
    170  O         31.5890   63.3980   37.5390 O.2   295  PHE295     -0.2867
    171  CB        30.6160   61.4760   39.1670 C.3   295  PHE295      0.0534
    172  CG        30.2110   60.2960   39.9870 C.ar  295  PHE295     -0.0203
    173  CD1       31.1700   59.4800   40.5650 C.ar  295  PHE295     -0.0042
    174  CD2       28.8640   59.9460   40.1140 C.ar  295  PHE295     -0.0042
    175  CE1       30.8050   58.3310   41.2490 C.ar  295  PHE295     -0.0003
    176  CE2       28.4830   58.8000   40.7980 C.ar  295  PHE295     -0.0003
    177  CZ        29.4560   57.9910   41.3650 C.ar  295  PHE295     -0.0000
    178  N         31.2260   65.8360   35.1310 N.3   297  GLU297     -0.1245
    179  CA        30.4340   67.0680   35.1550 C.3   297  GLU297      0.1567
    180  C         30.6190   67.7240   33.7720 C.2   297  GLU297      0.2260
    181  O         31.7450   67.8740   33.2940 O.2   297  GLU297     -0.2867
    182  CB        30.9570   68.0660   36.2100 C.3   297  GLU297      0.0388
    183  CG        30.7840   67.6970   37.6820 C.3   297  GLU297      0.1160
    184  CD        29.3430   67.3710   38.0610 C.2   297  GLU297      0.3649
    185  OE1       28.4180   68.0290   37.5100 O.co2 297  GLU297     -0.2457
    186  OE2       29.1440   66.4630   38.9170 O.co2 297  GLU297     -0.2457
@<TRIPOS>BOND
     1   181   180    2
     2   157   156   ar
     3   180   179    1
     4   151   152    1
     5   144   145    2
     6   144   143    1
     7   158   156   ar
     8   147   146    1
     9   147   148    1
    10   156   155    1
    11   152   155    1
    12   152   153    1
    13   140   139    1
    14   146   143    1
    15   178   179    1
    16   179   182    1
    17   162   161    2
    18   143   142    1
    19   150   148   ar
    20    17    18    1
    21    17    16    1
    22   148   149   ar
    23     6     7    1
    24     6     5    1
    25   139   141    1
    26   139   136    1
    27    18    12    1
    28   153   159   am
    29   153   154    2
    30     2     1    1
    31     2     5    1
    32     2     3    1
    33   159   160    1
    34   142   137   am
    35   161   160    1
    36     7     8    1
    37    12     3   am
    38    12    13    1
    39   182   183    1
    40   137   138    2
    41   137   136    1
    42     3     4    2
    43   160   163    1
    44    16    13    1
    45   136   135    1
    46   163   164    1
    47    13    14    1
    48   169   170    2
    49   169   168    1
    50    10     9    1
    51     8     9    2
    52   166   164   am
    53   120   118    1
    54   185   184   ar
    55   167   168    1
    56   135   133   am
    57   105   104    2
    58   183   184    1
    59   168   171    1
    60   164   165    2
    61     9    11    1
    62   117   116    2
    63   184   186   ar
    64    14    15    2
    65   104   103    1
    66   118   119    1
    67   118   115    1
    68   116   115    1
    69   133   132    1
    70   133   134    2
    71   171   172    1
    72   115   114    1
    73   132   131    1
    74   106   103    1
    75   106   107    1
    76   103   102    1
    77   172   174   ar
    78   172   173   ar
    79   174   176   ar
    80   114   112   am
    81   173   175   ar
    82   124   123    2
    83   176   177   ar
    84   131   123   am
    85   107   109   ar
    86   107   108   ar
    87   175   177   ar
    88   123   122    1
    89   129   127   ar
    90   129   130   ar
    91   127   126   ar
    92   112   113    2
    93   112   111    1
    94    19    20    1
    95   130   128   ar
    96   126   125    1
    97   126   128   ar
    98   122   125    1
    99   122   121    1
   100   111   110    1
   101    20    21    1
   102    20    23    1
   103    88    87    1
   104    73    72    1
   105    86    87    1
   106    86    85    1
   107    21    22    2
   108    97    96    2
   109    83    82    2
   110    72    71    1
   111    96    95    1
   112   101    99   ar
   113    85    84    1
   114    23    24    1
   115    25    24    2
   116    84    81    1
   117    71    70    1
   118   100    99   ar
   119    46    45    1
   120    47    45    1
   121    82    81    1
   122    99    98    1
   123    24    26   am
   124    70    69    1
   125    81    80    1
   126    45    44    1
   127    95    98    1
   128    95    94    1
   129    64    62   ar
   130    64    63   ar
   131    62    60   ar
   132    94    91   am
   133    69    66    1
   134    79    78    1
   135    93    90    1
   136    63    61   ar
   137    91    90    1
   138    91    92    2
   139    35    34    1
   140    44    41    1
   141    60    61   ar
   142    60    59    1
   143    90    89    1
   144    66    67    1
   145    66    65    1
   146    77    76    2
   147    58    57    2
   148    74    67   am
   149    74    75    1
   150    78    75    1
   151    59    56    1
   152    41    40    1
   153    41    42    1
   154    33    34    1
   155    33    32    1
   156    67    68    2
   157    30    29    2
   158    76    75    1
   159    40    38   am
   160    56    57    1
   161    56    55    1
   162    32    31    1
   163    38    39    2
   164    38    37    1
   165    43    42    2
   166    51    50    2
   167    37    36    1
   168    29    36   am
   169    29    28    1
   170    55    50   am
   171    50    49    1
   172    31    28    1
   173    27    28    1
   174    48    49    1
   175    49    52    1
   176    52    53    1
   177    52    54    1
