@<TRIPOS>MOLECULE
tmp/1pk2A00.pdb
 97 97 0 0 0
SMALL
GASTEIGER

@<TRIPOS>ATOM
      1  N        -12.8670    5.3480    3.3790 N.3    39  LYS39      -0.1231
      2  CA       -12.4470    4.0930    4.0580 C.3    39  LYS39       0.1693
      3  C        -11.0220    4.1790    4.6310 C.2    39  LYS39       0.2592
      4  O        -10.2920    5.1240    4.3780 O.2    39  LYS39      -0.2718
      5  CB       -12.5100    2.9550    3.0250 C.3    39  LYS39       0.0285
      6  CG       -12.2910    1.6180    3.7400 C.3    39  LYS39       0.0035
      7  CD       -13.0290    0.5040    2.9950 C.3    39  LYS39       0.0206
      8  CE       -12.6030   -0.8400    3.5820 C.3    39  LYS39       0.1093
      9  NZ       -13.2480   -1.9560    2.8390 N.3    39  LYS39      -0.1314
     10  N        -10.6810    3.1600    5.4000 N.am   40  VAL40      -0.1966
     11  CA        -9.3300    3.0660    6.0520 C.3    40  VAL40       0.1727
     12  C         -8.2580    3.9420    5.3820 C.2    40  VAL40       0.2616
     13  O         -7.9460    5.0160    5.8670 O.2    40  VAL40      -0.2715
     14  CB        -8.8740    1.5840    5.9940 C.3    40  VAL40       0.0290
     15  CG1       -7.6900    1.3820    6.9450 C.3    40  VAL40       0.0023
     16  CG2      -10.0250    0.6730    6.4420 C.3    40  VAL40       0.0023
     17  N         -7.7120    3.4750    4.2890 N.am   41  TYR41      -0.1974
     18  CA        -6.6670    4.2810    3.6030 C.3    41  TYR41       0.1639
     19  C         -6.9630    4.4370    2.1230 C.2    41  TYR41       0.2290
     20  O         -7.1440    3.4650    1.4150 O.2    41  TYR41      -0.2864
     21  CB        -5.3220    3.5620    3.7890 C.3    41  TYR41       0.0560
     22  CG        -4.9850    3.5640    5.2770 C.ar   41  TYR41      -0.0198
     23  CD1       -4.8030    4.7560    5.9450 C.ar   41  TYR41      -0.0009
     24  CD2       -4.9020    2.3850    5.9790 C.ar   41  TYR41      -0.0009
     25  CE1       -4.5460    4.7700    7.2990 C.ar   41  TYR41       0.0417
     26  CE2       -4.6450    2.3960    7.3350 C.ar   41  TYR41       0.0417
     27  CZ        -4.4640    3.5880    8.0060 C.ar   41  TYR41       0.1957
     28  OH        -4.1960    3.5950    9.3550 O.3    41  TYR41      -0.2866
     29  N         -0.1080    3.4370    8.4160 N.3    63  ASP63      -0.1239
     30  CA        -0.1590    3.1420    9.8750 C.3    63  ASP63       0.1674
     31  C          1.2470    3.1800   10.4800 C.2    63  ASP63       0.2266
     32  O          1.4100    3.2270   11.6860 O.2    63  ASP63      -0.2867
     33  CB        -0.7350    1.7150   10.0840 C.3    63  ASP63       0.1410
     34  CG        -1.4840    1.2370    8.8400 C.2    63  ASP63       0.3668
     35  OD1       -0.8110    0.9930    7.8470 O.co2  63  ASP63      -0.2456
     36  OD2       -2.6860    1.1140    8.9570 O.co2  63  ASP63      -0.2456
     37  N          3.5980    0.9100    9.5180 N.3    65  ASP65      -0.1239
     38  CA         3.9640   -0.5170    9.6080 C.3    65  ASP65       0.1674
     39  C          5.4060   -0.7490    9.1410 C.2    65  ASP65       0.2266
     40  O          6.1770    0.1850    8.9850 O.2    65  ASP65      -0.2867
     41  CB         2.9930   -1.2850    8.6840 C.3    65  ASP65       0.1410
     42  CG         2.1210   -2.2220    9.5180 C.2    65  ASP65       0.3668
     43  OD1        1.1180   -1.7340   10.0140 O.co2  65  ASP65      -0.2456
     44  OD2        2.5080   -3.3730    9.6120 O.co2  65  ASP65      -0.2456
     45  N          2.7710   -1.4650    2.8400 N.3    69  TRP69      -0.1241
     46  CA         1.8230   -2.5260    2.4020 C.3    69  TRP69       0.1605
     47  C          0.7340   -1.9500    1.5200 C.2    69  TRP69       0.2264
     48  O          0.8440   -0.8480    1.0070 O.2    69  TRP69      -0.2867
     49  CB         1.1580   -3.0740    3.6730 C.3    69  TRP69       0.0550
     50  CG         0.4840   -1.9110    4.3960 C.ar   69  TRP69       0.0003
     51  CD1        1.1310   -1.0490    5.1800 C.ar   69  TRP69       0.0946
     52  CD2       -0.7960   -1.5830    4.2770 C.ar   69  TRP69       0.0152
     53  NE1        0.1720   -0.1790    5.5370 N.ar   69  TRP69      -0.2442
     54  CE2       -1.0680   -0.4410    5.0020 C.ar   69  TRP69       0.0810
     55  CE3       -1.8180   -2.1860    3.5430 C.ar   69  TRP69       0.0012
     56  CZ2       -2.3360    0.1040    4.9950 C.ar   69  TRP69       0.0191
     57  CZ3       -3.0860   -1.6330    3.5380 C.ar   69  TRP69       0.0001
     58  CH2       -3.3460   -0.4930    4.2620 C.ar   69  TRP69       0.0015
     59  N         -3.7460   -2.7240    0.2610 N.3    71  HIS71      -0.1241
     60  CA        -4.9800   -3.5450    0.3350 C.3    71  HIS71       0.1621
     61  C         -4.9880   -4.7070   -0.6430 C.2    71  HIS71       0.2264
     62  O         -4.3100   -4.6970   -1.6340 O.2    71  HIS71      -0.2867
     63  CB        -6.1400   -2.6670   -0.1140 C.3    71  HIS71       0.0745
     64  CG        -6.5450   -1.6660    0.9200 C.ar   71  HIS71       0.0817
     65  ND1       -7.2370   -1.9270    1.9170 N.ar   71  HIS71      -0.2268
     66  CD2       -6.4300   -0.3090    0.8910 C.ar   71  HIS71       0.1154
     67  CE1       -7.5890   -0.8750    2.5080 C.ar   71  HIS71       0.1986
     68  NE2       -7.1130    0.2180    1.9310 N.ar   71  HIS71      -0.2212
     69  N        -12.3010   -8.3360    2.2480 N.3    78  LEU78      -0.1231
     70  CA       -11.1770   -7.3840    1.9970 C.3    78  LEU78       0.1693
     71  C         -9.9770   -7.7120    2.9050 C.2    78  LEU78       0.2593
     72  O        -10.1310   -8.3590    3.9370 O.2    78  LEU78      -0.2718
     73  CB       -11.6830   -5.9600    2.3190 C.3    78  LEU78       0.0284
     74  CG       -10.7270   -4.9150    1.7090 C.3    78  LEU78       0.0019
     75  CD1      -11.3340   -4.3700    0.4140 C.3    78  LEU78       0.0001
     76  CD2      -10.5280   -3.7580    2.6980 C.3    78  LEU78       0.0001
     77  N         -8.8070   -7.2740    2.4960 N.am   79  THR79      -0.1939
     78  CA        -7.5820   -7.5430    3.3080 C.3    79  THR79       0.2028
     79  C         -6.4710   -6.5280    2.9900 C.2    79  THR79       0.2642
     80  O         -6.7150   -5.5050    2.3700 O.2    79  THR79      -0.2714
     81  CB        -7.0740   -8.9620    2.9650 C.3    79  THR79       0.1808
     82  OG1       -7.6790   -9.3030    1.7290 O.3    79  THR79      -0.2208
     83  CG2       -7.6320   -9.9960    3.9460 C.3    79  THR79       0.0379
     84  N         -5.2740   -6.8430    3.4260 N.am   80  TRP80      -0.1973
     85  CA        -4.0990   -5.9400    3.1830 C.3    80  TRP80       0.1640
     86  C         -2.8210   -6.6130    3.6890 C.2    80  TRP80       0.2290
     87  O         -2.7740   -7.0540    4.8210 O.2    80  TRP80      -0.2864
     88  CB        -4.3150   -4.6340    3.9630 C.3    80  TRP80       0.0576
     89  CG        -4.2680   -4.9030    5.4760 C.ar   80  TRP80       0.0006
     90  CD1       -5.3130   -5.2730    6.2220 C.ar   80  TRP80       0.0946
     91  CD2       -3.1970   -4.7550    6.2240 C.ar   80  TRP80       0.0152
     92  NE1       -4.8010   -5.3310    7.4680 N.ar   80  TRP80      -0.2442
     93  CE2       -3.4820   -5.0170    7.5450 C.ar   80  TRP80       0.0810
     94  CE3       -1.9140   -4.3950    5.8610 C.ar   80  TRP80       0.0012
     95  CZ2       -2.5160   -4.9180    8.5010 C.ar   80  TRP80       0.0191
     96  CZ3       -0.9280   -4.2930    6.8260 C.ar   80  TRP80       0.0001
     97  CH2       -1.2290   -4.5550    8.1500 C.ar   80  TRP80       0.0015
@<TRIPOS>BOND
     1    62    61    2
     2    61    60    1
     3    63    60    1
     4    63    64    1
     5    59    60    1
     6    75    74    1
     7    66    64   ar
     8    66    68   ar
     9    64    65   ar
    10    48    47    2
    11    20    19    2
    12    47    46    1
    13    74    73    1
    14    74    76    1
    15    82    81    1
    16    65    67   ar
    17    68    67   ar
    18    70    69    1
    19    70    73    1
    20    70    71    1
    21    19    18    1
    22    80    79    2
    23    46    45    1
    24    46    49    1
    25    77    71   am
    26    77    78    1
    27     9     8    1
    28    71    72    2
    29    81    78    1
    30    81    83    1
    31    79    78    1
    32    79    84   am
    33     7     8    1
    34     7     6    1
    35     5     6    1
    36     5     2    1
    37    85    84    1
    38    85    86    1
    39    85    88    1
    40     1     2    1
    41    57    55   ar
    42    57    58   ar
    43    55    52   ar
    44    18    21    1
    45    18    17    1
    46    49    50    1
    47    86    87    2
    48    21    22    1
    49    88    89    1
    50     2     3    1
    51    58    56   ar
    52    52    50   ar
    53    52    54   ar
    54    17    12   am
    55     4     3    2
    56    50    51   ar
    57     3    10   am
    58    56    54   ar
    59    54    53   ar
    60    51    53   ar
    61    22    23   ar
    62    22    24   ar
    63    12    13    2
    64    12    11    1
    65    10    11    1
    66    89    90   ar
    67    89    91   ar
    68    94    91   ar
    69    94    96   ar
    70    23    25   ar
    71    24    26   ar
    72    14    11    1
    73    14    16    1
    74    14    15    1
    75    90    92   ar
    76    91    93   ar
    77    96    97   ar
    78    25    27   ar
    79    26    27   ar
    80    92    93   ar
    81    93    95   ar
    82    35    34   ar
    83    27    28    1
    84    97    95   ar
    85    29    30    1
    86    41    42    1
    87    41    38    1
    88    34    36   ar
    89    34    33    1
    90    40    39    2
    91    39    38    1
    92    37    38    1
    93    42    44   ar
    94    42    43   ar
    95    30    33    1
    96    30    31    1
    97    31    32    2
