@<TRIPOS>MOLECULE
tmp/1pk8A00.pdb
 210 200 0 0 0
SMALL
GASTEIGER

@<TRIPOS>ATOM
      1  N         10.8920   26.6680   39.1840 N.3    77  HIS77      -0.1241
      2  CA        11.9640   27.5450   38.7180 C.3    77  HIS77       0.1621
      3  C         13.1990   27.2650   39.5760 C.2    77  HIS77       0.2264
      4  O         13.1380   27.3550   40.7990 O.2    77  HIS77      -0.2867
      5  CB        11.5930   29.0220   38.8720 C.3    77  HIS77       0.0745
      6  CG        10.3680   29.4330   38.1140 C.ar   77  HIS77       0.0817
      7  ND1       10.1980   29.1780   36.7720 N.ar   77  HIS77      -0.2268
      8  CD2        9.2570   30.0980   38.5120 C.ar   77  HIS77       0.1154
      9  CE1        9.0380   29.6670   36.3730 C.ar   77  HIS77       0.1986
     10  NE2        8.4470   30.2310   37.4100 N.ar   77  HIS77      -0.2212
     11  N         17.2640   35.1550   32.3960 N.3   114  LYS114     -0.1245
     12  CA        16.3620   35.4990   31.3080 C.3   114  LYS114      0.1561
     13  C         17.0280   36.1850   30.1160 C.2   114  LYS114      0.2260
     14  O         16.7720   35.8310   28.9800 O.2   114  LYS114     -0.2867
     15  CB        15.2100   36.3460   31.8480 C.3   114  LYS114      0.0271
     16  CG        14.2380   35.5010   32.6440 C.3   114  LYS114      0.0035
     17  CD        13.0190   36.2850   33.0500 C.3   114  LYS114      0.0206
     18  CE        11.9560   35.3720   33.6220 C.3   114  LYS114      0.1093
     19  NZ        10.6870   36.1250   33.7400 N.3   114  LYS114     -0.1314
     20  N         10.4360   41.3080   20.4070 N.3   136  ILE136     -0.1245
     21  CA        10.2440   42.6740   20.8710 C.3   136  ILE136      0.1561
     22  C         11.5630   43.4240   20.9660 C.2   136  ILE136      0.2260
     23  O         12.6200   42.8150   21.1870 O.2   136  ILE136     -0.2867
     24  CB         9.5650   42.6870   22.2590 C.3   136  ILE136      0.0252
     25  CG1        9.0850   44.0950   22.5950 C.3   136  ILE136      0.0019
     26  CG2       10.5490   42.1880   23.3190 C.3   136  ILE136      0.0019
     27  CD1        8.2590   44.1580   23.8660 C.3   136  ILE136      0.0001
     28  N          8.8920   49.1770   29.7290 N.3   156  VAL156     -0.1245
     29  CA         8.7290   48.2120   30.7950 C.3   156  VAL156      0.1561
     30  C         10.1260   47.7710   31.1870 C.2   156  VAL156      0.2260
     31  O         10.8670   47.2280   30.3610 O.2   156  VAL156     -0.2867
     32  CB         7.9280   46.9870   30.3330 C.3   156  VAL156      0.0252
     33  CG1        7.9120   45.9430   31.4390 C.3   156  VAL156      0.0019
     34  CG2        6.5020   47.4090   29.9760 C.3   156  VAL156      0.0019
     35  N         12.5290   45.3800   33.3440 N.3   158  LYS158     -0.1245
     36  CA        12.5100   44.0870   34.0070 C.3   158  LYS158      0.1561
     37  C         13.8460   43.8600   34.6850 C.2   158  LYS158      0.2260
     38  O         14.8790   43.6620   34.0400 O.2   158  LYS158     -0.2867
     39  CB        12.1980   42.9830   32.9890 C.3   158  LYS158      0.0271
     40  CG        10.8930   43.2810   32.2450 C.3   158  LYS158      0.0035
     41  CD        10.4250   42.1750   31.3050 C.3   158  LYS158      0.0206
     42  CE         9.1220   42.6390   30.6120 C.3   158  LYS158      0.1093
     43  NZ         8.5280   41.6450   29.6850 N.3   158  LYS158     -0.1314
     44  N         10.2110   35.8290   38.4710 N.3   163  HIS163     -0.1226
     45  CA         9.0070   35.3450   37.8090 C.3   163  HIS163      0.1752
     46  C          7.7040   35.9290   38.3380 C.2   163  HIS163      0.2597
     47  O          7.6990   36.7180   39.2800 O.2   163  HIS163     -0.2718
     48  CB         8.9640   33.8300   37.9490 C.3   163  HIS163      0.0759
     49  CG        10.3100   33.1900   37.8500 C.ar  163  HIS163      0.0818
     50  ND1       10.9060   32.8860   36.6440 N.ar  163  HIS163     -0.2268
     51  CD2       11.1940   32.8310   38.8120 C.ar  163  HIS163      0.1154
     52  CE1       12.1020   32.3680   36.8690 C.ar  163  HIS163      0.1986
     53  NE2       12.3000   32.3250   38.1760 N.ar  163  HIS163     -0.2212
     54  N          6.6050   35.5120   37.7060 N.am  164  SER164     -0.1938
     55  CA         5.2560   35.9360   38.0600 C.3   164  SER164      0.2055
     56  C          5.0850   37.4440   38.2070 C.2   164  SER164      0.2643
     57  O          4.3720   37.9080   39.0880 O.2   164  SER164     -0.2714
     58  CB         4.8170   35.2440   39.3570 C.3   164  SER164      0.2130
     59  OG         4.6510   33.8540   39.1410 O.3   164  SER164     -0.2179
     60  N          5.7440   38.1950   37.3350 N.am  165  GLY165     -0.1954
     61  CA         5.6560   39.6470   37.3510 C.3   165  GLY165      0.1869
     62  C          6.6400   40.3350   38.2830 C.2   165  GLY165      0.2309
     63  O          6.7680   41.5580   38.2690 O.2   165  GLY165     -0.2863
     64  N          9.1930   43.7610   37.7400 N.3   168  LYS168     -0.1245
     65  CA         8.8550   44.4350   36.5010 C.3   168  LYS168      0.1561
     66  C          7.9480   45.6260   36.7580 C.2   168  LYS168      0.2260
     67  O          6.9320   45.5190   37.4450 O.2   168  LYS168     -0.2867
     68  CB         8.2100   43.4290   35.5520 C.3   168  LYS168      0.0271
     69  CG         9.1610   42.2640   35.2850 C.3   168  LYS168      0.0035
     70  CD         8.5180   41.1180   34.5530 C.3   168  LYS168      0.0206
     71  CE         9.5230   39.9830   34.3430 C.3   168  LYS168      0.1093
     72  NZ         9.8280   39.2220   35.5880 N.3   168  LYS168     -0.1314
     73  N         12.1660   47.5370   27.5830 N.3   194  GLU194     -0.1231
     74  CA        11.5300   47.2610   26.3030 C.3   194  GLU194      0.1684
     75  C         10.2950   48.1610   26.1850 C.2   194  GLU194      0.2434
     76  O          9.7400   48.6030   27.1860 O.2   194  GLU194     -0.2733
     77  CB        11.0980   45.7930   26.2270 C.3   194  GLU194      0.0402
     78  CG         9.9380   45.4500   27.1680 C.3   194  GLU194      0.1161
     79  CD         9.8760   43.9720   27.5180 C.2   194  GLU194      0.3649
     80  OE1       10.9310   43.4190   27.8940 O.co2 194  GLU194     -0.2457
     81  OE2        8.7850   43.3630   27.4280 O.co2 194  GLU194     -0.2457
     82  N          9.8600   48.4450   24.9530 N.am  195  PRO195     -0.2718
     83  CA         8.6880   49.2920   24.7210 C.3   195  PRO195      0.1535
     84  C          7.4600   48.7310   25.4240 C.2   195  PRO195      0.2599
     85  O          7.2230   47.5260   25.3960 O.2   195  PRO195     -0.2715
     86  CB         8.5370   49.2780   23.2030 C.3   195  PRO195      0.0310
     87  CG         9.9540   49.0670   22.7290 C.3   195  PRO195      0.0237
     88  CD        10.4720   48.0310   23.6820 C.3   195  PRO195      0.0939
     89  N          6.6870   49.6040   26.0550 N.am  196  PHE196     -0.1960
     90  CA         5.4590   49.1690   26.6970 C.3   196  PHE196      0.1771
     91  C          4.4910   48.9760   25.5380 C.2   196  PHE196      0.2619
     92  O          4.3450   49.8620   24.6990 O.2   196  PHE196     -0.2715
     93  CB         4.9040   50.2450   27.6270 C.3   196  PHE196      0.0574
     94  CG         3.5030   49.9720   28.0840 C.ar  196  PHE196     -0.0200
     95  CD1        3.2480   49.0220   29.0670 C.ar  196  PHE196     -0.0042
     96  CD2        2.4300   50.6610   27.5180 C.ar  196  PHE196     -0.0042
     97  CE1        1.9460   48.7610   29.4850 C.ar  196  PHE196     -0.0003
     98  CE2        1.1200   50.4070   27.9290 C.ar  196  PHE196     -0.0003
     99  CZ         0.8810   49.4550   28.9150 C.ar  196  PHE196     -0.0000
    100  N          3.8320   47.8300   25.4810 N.am  197  ILE197     -0.1977
    101  CA         2.8910   47.5960   24.4000 C.3   197  ILE197      0.1596
    102  C          1.4380   47.6760   24.8730 C.2   197  ILE197      0.2287
    103  O          1.0200   46.9320   25.7690 O.2   197  ILE197     -0.2864
    104  CB         3.1330   46.2200   23.7620 C.3   197  ILE197      0.0276
    105  CG1        4.5670   46.1610   23.2230 C.3   197  ILE197      0.0022
    106  CG2        2.1410   45.9860   22.6160 C.3   197  ILE197      0.0022
    107  CD1        4.9860   44.8040   22.8170 C.3   197  ILE197      0.0001
    108  N         -1.4000   46.4210   24.6700 N.3   199  ALA199     -0.1245
    109  CA        -1.8660   45.1650   24.1100 C.3   199  ALA199      0.1562
    110  C         -3.3480   44.8560   24.2150 C.2   199  ALA199      0.2260
    111  O         -3.9990   45.1260   25.2190 O.2   199  ALA199     -0.2867
    112  CB        -1.0590   44.0070   24.7240 C.3   199  ALA199      0.0290
    113  N         -2.3380   39.0560   25.2890 N.3   202  ASP202     -0.1239
    114  CA        -1.0490   38.4190   25.0870 C.3   202  ASP202      0.1674
    115  C         -1.3630   36.9670   24.8010 C.2   202  ASP202      0.2266
    116  O         -2.4530   36.4850   25.1260 O.2   202  ASP202     -0.2867
    117  CB        -0.1220   38.5750   26.3170 C.3   202  ASP202      0.1410
    118  CG        -0.7610   38.1490   27.6250 C.2   202  ASP202      0.3668
    119  OD1       -0.9650   36.9380   27.8390 O.co2 202  ASP202     -0.2456
    120  OD2       -1.0540   39.0420   28.4500 O.co2 202  ASP202     -0.2456
    121  N         -4.6840   35.5250   26.5070 N.3   217  ARG217     -0.1245
    122  CA        -5.0390   35.9630   27.8470 C.3   217  ARG217      0.1563
    123  C         -5.3500   37.4450   27.8520 C.2   217  ARG217      0.2260
    124  O         -4.5970   38.2600   27.3150 O.2   217  ARG217     -0.2867
    125  CB        -3.9120   35.6780   28.8390 C.3   217  ARG217      0.0307
    126  CG        -4.2940   36.0080   30.2840 C.3   217  ARG217      0.0489
    127  CD        -3.2350   35.5090   31.2650 C.3   217  ARG217      0.2205
    128  NE        -1.9440   36.1620   31.0570 N.pl3 217  ARG217     -0.0865
    129  CZ        -0.7830   35.6740   31.4850 C.cat 217  ARG217      0.5346
    130  NH1       -0.7450   34.5220   32.1490 N.pl3 217  ARG217      0.1354
    131  NH2        0.3420   36.3380   31.2480 N.pl3 217  ARG217      0.1354
    132  N         -1.9770   46.0480   33.7210 N.3   224  TRP224     -0.1227
    133  CA        -1.2560   45.8880   32.4620 C.3   224  TRP224      0.1737
    134  C         -0.5820   44.5140   32.5100 C.2   224  TRP224      0.2595
    135  O         -0.3480   43.8900   31.4740 O.2   224  TRP224     -0.2718
    136  CB        -0.2200   47.0110   32.2420 C.3   224  TRP224      0.0564
    137  CG         0.8800   47.1510   33.2550 C.ar  224  TRP224      0.0003
    138  CD1        0.8320   47.8450   34.4270 C.ar  224  TRP224      0.0946
    139  CD2        2.2060   46.6110   33.1630 C.ar  224  TRP224      0.0152
    140  NE1        2.0450   47.7770   35.0710 N.ar  224  TRP224     -0.2442
    141  CE2        2.9060   47.0250   34.3180 C.ar  224  TRP224      0.0810
    142  CE3        2.8680   45.8170   32.2170 C.ar  224  TRP224      0.0012
    143  CZ2        4.2360   46.6730   34.5540 C.ar  224  TRP224      0.0191
    144  CZ3        4.1950   45.4660   32.4530 C.ar  224  TRP224      0.0001
    145  CH2        4.8630   45.8940   33.6120 C.ar  224  TRP224      0.0015
    146  N         -0.2880   44.0420   33.7230 N.am  225  LYS225     -0.1966
    147  CA         0.2890   42.7100   33.9150 C.3   225  LYS225      0.1728
    148  C         -0.9020   41.7400   33.9650 C.2   225  LYS225      0.2617
    149  O         -1.5410   41.5940   35.0020 O.2   225  LYS225     -0.2715
    150  CB         1.0670   42.6270   35.2390 C.3   225  LYS225      0.0311
    151  CG         2.3910   43.4020   35.2990 C.3   225  LYS225      0.0038
    152  CD         3.1150   43.1360   36.6390 C.3   225  LYS225      0.0206
    153  CE         4.3860   43.9720   36.7610 C.3   225  LYS225      0.1093
    154  NZ         5.0490   43.8630   38.0950 N.3   225  LYS225     -0.1314
    155  N         -1.1950   41.0780   32.8490 N.am  226  THR226     -0.1937
    156  CA        -2.3350   40.1620   32.7810 C.3   226  THR226      0.2028
    157  C         -2.1670   38.8590   33.5500 C.2   226  THR226      0.2642
    158  O         -3.0810   38.0330   33.5860 O.2   226  THR226     -0.2714
    159  CB        -2.6710   39.8010   31.3200 C.3   226  THR226      0.1808
    160  OG1       -1.6410   38.9610   30.7840 O.3   226  THR226     -0.2208
    161  CG2       -2.7920   41.0650   30.4760 C.3   226  THR226      0.0379
    162  N         -1.0020   38.6700   34.1600 N.am  227  ASN227     -0.1971
    163  CA        -0.7450   37.4630   34.9440 C.3   227  ASN227      0.1688
    164  C         -0.8850   37.8610   36.4100 C.2   227  ASN227      0.2292
    165  O         -0.6460   37.0690   37.3230 O.2   227  ASN227     -0.2864
    166  CB         0.6710   36.9490   34.6800 C.3   227  ASN227      0.1181
    167  CG         1.7340   37.8240   35.3190 C.2   227  ASN227      0.2629
    168  OD1        1.5730   39.0390   35.4190 O.2   227  ASN227     -0.2716
    169  ND2        2.8280   37.2110   35.7480 N.am  227  ASN227     -0.0877
    170  N          5.9870   33.3860   24.6810 N.3   262  GLU262     -0.1245
    171  CA         5.0180   34.3990   25.0630 C.3   262  GLU262      0.1567
    172  C          5.1910   35.5940   24.1400 C.2   262  GLU262      0.2260
    173  O          6.3170   36.0370   23.8730 O.2   262  GLU262     -0.2867
    174  CB         5.2450   34.8550   26.5100 C.3   262  GLU262      0.0388
    175  CG         5.1480   33.7790   27.5810 C.3   262  GLU262      0.1160
    176  CD         5.6160   34.3070   28.9400 C.2   262  GLU262      0.3649
    177  OE1        5.4300   35.5130   29.1990 O.co2 262  GLU262     -0.2457
    178  OE2        6.1630   33.5270   29.7490 O.co2 262  GLU262     -0.2457
    179  N          3.1820   39.4960   22.9530 N.3   264  LEU264     -0.1245
    180  CA         2.1530   40.4740   23.2250 C.3   264  LEU264      0.1561
    181  C          1.5500   40.8460   21.8790 C.2   264  LEU264      0.2260
    182  O          2.2780   41.0130   20.8950 O.2   264  LEU264     -0.2867
    183  CB         2.7530   41.7070   23.8730 C.3   264  LEU264      0.0270
    184  CG         3.4700   41.4390   25.1960 C.3   264  LEU264      0.0019
    185  CD1        3.9570   42.7400   25.7410 C.3   264  LEU264      0.0001
    186  CD2        2.5470   40.7750   26.1850 C.3   264  LEU264      0.0001
    187  N          8.2070   38.1440   23.7120 N.3   274  ILE274     -0.1231
    188  CA         8.9620   38.6830   24.8330 C.3   274  ILE274      0.1692
    189  C          9.7020   37.6320   25.6450 C.2   274  ILE274      0.2591
    190  O         10.5090   37.9650   26.5080 O.2   274  ILE274     -0.2718
    191  CB         8.0540   39.4950   25.8030 C.3   274  ILE274      0.0266
    192  CG1        6.9830   38.5910   26.4140 C.3   274  ILE274      0.0019
    193  CG2        7.4340   40.6660   25.0590 C.3   274  ILE274      0.0020
    194  CD1        6.2520   39.2580   27.5640 C.3   274  ILE274      0.0001
    195  N          9.4410   36.3640   25.3700 N.am  275  GLU275     -0.1979
    196  CA        10.1120   35.3250   26.1300 C.3   275  GLU275      0.1602
    197  C          9.7610   33.8960   25.7820 C.2   275  GLU275      0.2287
    198  O          8.6670   33.6090   25.2900 O.2   275  GLU275     -0.2864
    199  CB         9.8220   35.5100   27.6140 C.3   275  GLU275      0.0415
    200  CG        10.4690   34.4430   28.4760 C.3   275  GLU275      0.1163
    201  CD        10.1660   34.6230   29.9430 C.2   275  GLU275      0.3649
    202  OE1       10.8140   33.9430   30.7690 O.co2 275  GLU275     -0.2457
    203  OE2        9.2810   35.4350   30.2800 O.co2 275  GLU275     -0.2457
    204  N          9.8670   30.1310   27.7200 N.3   277  VAL277     -0.1245
    205  CA        10.0260   29.5100   29.0320 C.3   277  VAL277      0.1561
    206  C         10.2710   28.0200   28.8900 C.2   277  VAL277      0.2260
    207  O          9.8890   27.4060   27.8830 O.2   277  VAL277     -0.2867
    208  CB         8.7820   29.7510   29.9110 C.3   277  VAL277      0.0252
    209  CG1        8.7090   31.2130   30.2930 C.3   277  VAL277      0.0019
    210  CG2        7.5220   29.3520   29.1560 C.3   277  VAL277      0.0019
@<TRIPOS>BOND
     1    20    21    1
     2    21    22    1
     3    21    24    1
     4   182   181    2
     5    22    23    2
     6   181   180    1
     7    24    25    1
     8    24    26    1
     9    25    27    1
    10   106   104    1
    11    87    86    1
    12    87    88    1
    13   107   105    1
    14   179   180    1
    15    86    83    1
    16   105   104    1
    17   180   183    1
    18    88    82    1
    19   187   188    1
    20   104   101    1
    21   173   172    2
    22   183   184    1
    23   109   110    1
    24   109   108    1
    25   109   112    1
    26   172   171    1
    27   110   111    2
    28   101   102    1
    29   101   100    1
    30   170   171    1
    31    92    91    2
    32    83    82    1
    33    83    84    1
    34   115   114    1
    35   115   116    2
    36   188   189    1
    37   188   191    1
    38   102   103    2
    39    82    75   am
    40   193   191    1
    41   171   174    1
    42   114   113    1
    43   114   117    1
    44   184   185    1
    45   184   186    1
    46   198   197    2
    47   195   189   am
    48   195   196    1
    49    85    84    2
    50    84    89   am
    51   100    91   am
    52    91    90    1
    53   189   190    2
    54   197   196    1
    55   191   192    1
    56    89    90    1
    57   196   199    1
    58    75    74    1
    59    75    76    2
    60    77    74    1
    61    77    78    1
    62    74    73    1
    63   117   118    1
    64   192   194    1
    65   121   122    1
    66   174   175    1
    67    90    93    1
    68    78    79    1
    69   124   123    2
    70    81    79   ar
    71    96    98   ar
    72    96    94   ar
    73    79    80   ar
    74   175   176    1
    75   199   200    1
    76   118   119   ar
    77   118   120   ar
    78    93    94    1
    79   204   205    1
    80   122   123    1
    81   122   125    1
    82   207   206    2
    83    98    99   ar
    84    94    95   ar
    85   200   201    1
    86   125   126    1
    87   206   205    1
    88    99    97   ar
    89   176   177   ar
    90   176   178   ar
    91    14    13    2
    92   205   208    1
    93    95    97   ar
    94   210   208    1
    95    43    42    1
    96    28    29    1
    97   208   209    1
    98   201   203   ar
    99   201   202   ar
   100    34    32    1
   101    13    12    1
   102   126   127    1
   103    32    29    1
   104    32    33    1
   105    31    30    2
   106   161   159    1
   107    42    41    1
   108   160   159    1
   109    29    30    1
   110   128   127    1
   111   128   129    2
   112   131   129    1
   113    41    40    1
   114    12    15    1
   115    12    11    1
   116   159   156    1
   117   135   134    2
   118   129   130    1
   119    15    16    1
   120   142   144   ar
   121   142   139   ar
   122   136   133    1
   123   136   137    1
   124    40    39    1
   125   144   145   ar
   126   133   134    1
   127   133   132    1
   128   134   146   am
   129    16    17    1
   130   156   155    1
   131   156   157    1
   132   155   148   am
   133    39    36    1
   134    17    18    1
   135   139   137   ar
   136   139   141   ar
   137   137   138   ar
   138    35    36    1
   139   157   158    2
   140   157   162   am
   141   145   143   ar
   142    18    19    1
   143   146   147    1
   144   147   148    1
   145   147   150    1
   146   148   149    2
   147    36    37    1
   148    38    37    2
   149   162   163    1
   150   141   143   ar
   151   141   140   ar
   152    71    70    1
   153    71    72    1
   154   138   140   ar
   155    70    69    1
   156   166   163    1
   157   166   167    1
   158   163   164    1
   159   150   151    1
   160    69    68    1
   161   151   152    1
   162   167   168    2
   163   167   169   am
   164    68    65    1
   165     9     7   ar
   166     9    10   ar
   167   164   165    2
   168    65    66    1
   169    65    64    1
   170   152   153    1
   171    50    52   ar
   172    50    49   ar
   173    66    67    2
   174   153   154    1
   175     7     6   ar
   176    52    53   ar
   177    60    61    1
   178    60    56   am
   179    61    62    1
   180    10     8   ar
   181    54    55    1
   182    54    46   am
   183    45    48    1
   184    45    46    1
   185    45    44    1
   186    49    48    1
   187    49    51   ar
   188    55    56    1
   189    55    58    1
   190     6     8   ar
   191     6     5    1
   192    53    51   ar
   193    56    57    2
   194    63    62    2
   195    46    47    2
   196     2     5    1
   197     2     1    1
   198     2     3    1
   199    59    58    1
   200     3     4    2
