@<TRIPOS>MOLECULE
tmp/1pk9C00.pdb
 133 124 0 0 0
SMALL
GASTEIGER

@<TRIPOS>ATOM
      1  N         49.1250   45.9130   35.5650 N.3    20  GLY20      -0.1225
      2  CA        50.2390   46.7490   35.9700 C.3    20  GLY20       0.1811
      3  C         49.8250   47.7020   37.0800 C.2    20  GLY20       0.2280
      4  O         50.6410   48.0850   37.9300 O.2    20  GLY20      -0.2866
      5  N         53.2310   46.5830   38.6250 N.3    63  GLY63      -0.1210
      6  CA        53.9610   47.7970   38.3000 C.3    63  GLY63       0.1956
      7  C         54.2990   47.9200   36.8200 C.2    63  GLY63       0.2611
      8  O         54.1080   46.9740   36.0430 O.2    63  GLY63      -0.2717
      9  N         54.8030   49.0850   36.4180 N.am   64  MET64      -0.1979
     10  CA        55.1580   49.3130   35.0200 C.3    64  MET64       0.1605
     11  C         56.6200   48.9800   34.7180 C.2    64  MET64       0.2287
     12  O         57.5240   49.3490   35.4720 O.2    64  MET64      -0.2864
     13  CB        54.8720   50.7650   34.6350 C.3    64  MET64       0.0413
     14  CG        53.4080   51.1670   34.8090 C.3    64  MET64       0.0598
     15  SD        53.0220   52.7860   34.0980 S.3    64  MET64      -0.1393
     16  CE        54.0810   53.8350   35.0900 C.3    64  MET64       0.0692
     17  N         48.7790   37.8990   32.8420 N.3    87  ARG87      -0.1245
     18  CA        48.8420   39.3500   32.8660 C.3    87  ARG87       0.1563
     19  C         47.6250   39.8990   32.1240 C.2    87  ARG87       0.2260
     20  O         47.2760   39.4210   31.0470 O.2    87  ARG87      -0.2867
     21  CB        50.1320   39.8480   32.2040 C.3    87  ARG87       0.0307
     22  CG        50.2070   41.3630   32.0700 C.3    87  ARG87       0.0489
     23  CD        51.5400   41.8250   31.4760 C.3    87  ARG87       0.2205
     24  NE        51.3560   42.9250   30.5260 N.pl3  87  ARG87      -0.0865
     25  CZ        50.8280   44.1080   30.8330 C.cat  87  ARG87       0.5346
     26  NH1       50.6950   45.0380   29.8910 N.pl3  87  ARG87       0.1354
     27  NH2       50.4420   44.3660   32.0790 N.pl3  87  ARG87       0.1354
     28  N         47.1120   46.7860   29.5040 N.3    90  SER90      -0.1202
     29  CA        46.6910   47.6690   28.4270 C.3    90  SER90       0.2020
     30  C         47.8530   47.7730   27.4350 C.2    90  SER90       0.2619
     31  O         48.9910   47.4110   27.7560 O.2    90  SER90      -0.2717
     32  CB        46.3510   49.0590   28.9780 C.3    90  SER90       0.2103
     33  OG        47.4900   49.7020   29.5470 O.3    90  SER90      -0.2182
     34  N         47.5700   48.2560   26.2310 N.am   91  CYS91      -0.1955
     35  CA        48.6120   48.4000   25.2230 C.3    91  CYS91       0.1843
     36  C         48.2320   49.4300   24.1710 C.2    91  CYS91       0.2626
     37  O         47.0740   49.8390   24.0800 O.2    91  CYS91      -0.2714
     38  CB        48.8910   47.0510   24.5450 C.3    91  CYS91       0.0997
     39  SG        47.5080   46.3430   23.6190 S.3    91  CYS91      -0.0797
     40  N         49.2250   49.8500   23.3890 N.am   92  GLY92      -0.1954
     41  CA        48.9950   50.8130   22.3290 C.3    92  GLY92       0.1869
     42  C         49.0320   50.0950   20.9940 C.2    92  GLY92       0.2309
     43  O         49.8680   49.2100   20.7790 O.2    92  GLY92      -0.2863
     44  N         58.2850   47.2920   25.3960 N.3   156  ALA156     -0.1245
     45  CA        59.2350   48.4010   25.3510 C.3   156  ALA156      0.1562
     46  C         59.7700   48.8370   26.7130 C.2   156  ALA156      0.2260
     47  O         59.0730   48.7540   27.7260 O.2   156  ALA156     -0.2867
     48  CB        58.5870   49.5980   24.6660 C.3   156  ALA156      0.0290
     49  N         61.1840   51.9650   26.9170 N.3   158  LEU158     -0.1231
     50  CA        60.8610   53.3940   26.9010 C.3   158  LEU158      0.1693
     51  C         59.4870   53.7110   26.3170 C.2   158  LEU158      0.2592
     52  O         59.2790   53.6150   25.1030 O.2   158  LEU158     -0.2718
     53  CB        61.9280   54.1900   26.1300 C.3   158  LEU158      0.0284
     54  CG        63.3410   54.2370   26.7360 C.3   158  LEU158      0.0019
     55  CD1       64.2480   55.1380   25.9000 C.3   158  LEU158      0.0001
     56  CD2       63.2630   54.7560   28.1660 C.3   158  LEU158      0.0001
     57  N         58.5580   54.0900   27.1930 N.am  159  PHE159     -0.1976
     58  CA        57.2030   54.4610   26.7950 C.3   159  PHE159      0.1639
     59  C         57.3310   55.6450   25.8390 C.2   159  PHE159      0.2290
     60  O         56.6210   55.7240   24.8360 O.2   159  PHE159     -0.2864
     61  CB        56.3900   54.8410   28.0360 C.3   159  PHE159      0.0560
     62  CG        54.9920   55.3060   27.7370 C.ar  159  PHE159     -0.0200
     63  CD1       54.7450   56.6220   27.3500 C.ar  159  PHE159     -0.0042
     64  CD2       53.9220   54.4230   27.8280 C.ar  159  PHE159     -0.0042
     65  CE1       53.4510   57.0490   27.0560 C.ar  159  PHE159     -0.0003
     66  CE2       52.6190   54.8380   27.5360 C.ar  159  PHE159     -0.0003
     67  CZ        52.3820   56.1530   27.1490 C.ar  159  PHE159     -0.0000
     68  N         51.6430   47.4780   21.7930 N.3   178  VAL178     -0.1231
     69  CA        52.8760   47.8850   22.4500 C.3   178  VAL178      0.1692
     70  C         52.6130   48.0560   23.9440 C.2   178  VAL178      0.2592
     71  O         51.7890   48.8800   24.3490 O.2   178  VAL178     -0.2718
     72  CB        53.4190   49.2350   21.8860 C.3   178  VAL178      0.0266
     73  CG1       54.7480   49.5980   22.5620 C.3   178  VAL178      0.0020
     74  CG2       53.6080   49.1330   20.3740 C.3   178  VAL178      0.0020
     75  N         53.2910   47.2560   24.7590 N.am  179  GLU179     -0.1966
     76  CA        53.1540   47.3670   26.2010 C.3   179  GLU179      0.1733
     77  C         54.5510   47.3130   26.8340 C.2   179  GLU179      0.2616
     78  O         55.5470   47.5140   26.1350 O.2   179  GLU179     -0.2715
     79  CB        52.1950   46.2920   26.7430 C.3   179  GLU179      0.0429
     80  CG        52.4270   44.8780   26.2620 C.3   179  GLU179      0.1163
     81  CD        53.4430   44.1550   27.1050 C.2   179  GLU179      0.3649
     82  OE1       54.5740   43.9520   26.6190 O.co2 179  GLU179     -0.2457
     83  OE2       53.1110   43.8010   28.2570 O.co2 179  GLU179     -0.2457
     84  N         54.6580   47.0500   28.1300 N.am  180  MET180     -0.1963
     85  CA        55.9840   47.0780   28.7440 C.3   180  MET180      0.1736
     86  C         56.3600   45.9360   29.6800 C.2   180  MET180      0.2616
     87  O         57.2830   46.0880   30.4850 O.2   180  MET180     -0.2715
     88  CB        56.1480   48.4110   29.4950 C.3   180  MET180      0.0427
     89  CG        55.9930   49.6580   28.6130 C.3   180  MET180      0.0599
     90  SD        55.8950   51.2330   29.5420 S.3   180  MET180     -0.1393
     91  CE        57.5520   51.2760   30.2940 C.3   180  MET180      0.0692
     92  N         55.6940   44.7910   29.5750 N.am  181  GLU181     -0.1977
     93  CA        56.0030   43.7020   30.5000 C.3   181  GLU181      0.1602
     94  C         56.0750   42.2730   29.9560 C.2   181  GLU181      0.2287
     95  O         56.8620   41.4600   30.4520 O.2   181  GLU181     -0.2864
     96  CB        54.9940   43.7050   31.6640 C.3   181  GLU181      0.0415
     97  CG        54.9890   44.9450   32.5750 C.3   181  GLU181      0.1163
     98  CD        54.1290   46.0930   32.0520 C.2   181  GLU181      0.3649
     99  OE1       53.1850   45.8360   31.2750 O.co2 181  GLU181     -0.2457
    100  OE2       54.3840   47.2550   32.4360 O.co2 181  GLU181     -0.2457
    101  N         44.3370   50.4330   24.8100 N.3   203  SER203     -0.1202
    102  CA        43.9190   51.6330   25.5300 C.3   203  SER203      0.2020
    103  C         44.2370   52.9320   24.7950 C.2   203  SER203      0.2618
    104  O         43.8020   54.0120   25.2060 O.2   203  SER203     -0.2717
    105  CB        44.5790   51.6630   26.9120 C.3   203  SER203      0.2103
    106  OG        45.9900   51.7100   26.8020 O.3   203  SER203     -0.2182
    107  N         45.0050   52.8310   23.7170 N.am  204  ASP204     -0.1973
    108  CA        45.3660   54.0080   22.9430 C.3   204  ASP204      0.1709
    109  C         45.9280   53.5910   21.5900 C.2   204  ASP204      0.2293
    110  O         46.3050   52.4290   21.3940 O.2   204  ASP204     -0.2864
    111  CB        46.3850   54.8560   23.7220 C.3   204  ASP204      0.1436
    112  CG        47.6490   54.0870   24.0760 C.2   204  ASP204      0.3671
    113  OD1       48.6500   54.2180   23.3390 O.co2 204  ASP204     -0.2456
    114  OD2       47.6440   53.3470   25.0870 O.co2 204  ASP204     -0.2456
    115  N         48.8380   54.5440   18.8480 N.3   206  ILE206     -0.1245
    116  CA        50.0580   55.2990   18.6360 C.3   206  ILE206      0.1561
    117  C         50.0440   56.2250   17.4180 C.2   206  ILE206      0.2260
    118  O         50.6630   57.2880   17.4490 O.2   206  ILE206     -0.2867
    119  CB        51.2580   54.3250   18.5830 C.3   206  ILE206      0.0252
    120  CG1       51.4080   53.6710   19.9580 C.3   206  ILE206      0.0019
    121  CG2       52.5380   55.0530   18.1760 C.3   206  ILE206      0.0019
    122  CD1       52.3680   52.5190   19.9960 C.3   206  ILE206      0.0001
    123  N         40.8640   52.9820   32.1120 N.3   217  ARG217     -0.1245
    124  CA        41.8030   51.8620   32.1530 C.3   217  ARG217      0.1563
    125  C         41.7420   51.1350   33.4970 C.2   217  ARG217      0.2260
    126  O         41.9470   49.9210   33.5760 O.2   217  ARG217     -0.2867
    127  CB        43.2370   52.3600   31.8970 C.3   217  ARG217      0.0307
    128  CG        43.3610   53.2050   30.6440 C.3   217  ARG217      0.0489
    129  CD        44.7760   53.7150   30.3650 C.3   217  ARG217      0.2205
    130  NE        44.7270   54.7080   29.2910 N.pl3 217  ARG217     -0.0865
    131  CZ        45.7710   55.1590   28.5980 C.cat 217  ARG217      0.5346
    132  NH1       46.9970   54.7160   28.8480 N.pl3 217  ARG217      0.1354
    133  NH2       45.5780   56.0580   27.6400 N.pl3 217  ARG217      0.1354
@<TRIPOS>BOND
     1   117   118    2
     2   117   116    1
     3   121   119    1
     4   119   116    1
     5   119   120    1
     6   116   115    1
     7   120   122    1
     8    74    72    1
     9    43    42    2
    10    42    41    1
    11   110   109    2
    12   109   108    1
    13    68    69    1
    14    72    69    1
    15    72    73    1
    16    41    40    1
    17    69    70    1
    18   108   107    1
    19   108   111    1
    20   113   112   ar
    21    40    36   am
    22    39    38    1
    23   107   103   am
    24   111   112    1
    25    70    71    2
    26    70    75   am
    27   112   114   ar
    28    37    36    2
    29    36    35    1
    30    38    35    1
    31    48    45    1
    32    75    76    1
    33   103   104    2
    34   103   102    1
    35   101   102    1
    36    60    59    2
    37    52    51    2
    38    35    34    1
    39    45    44    1
    40    45    46    1
    41   102   105    1
    42    59    58    1
    43    55    54    1
    44    53    54    1
    45    53    50    1
    46    78    77    2
    47    76    79    1
    48    76    77    1
    49    34    30   am
    50    80    79    1
    51    80    81    1
    52    51    50    1
    53    51    57   am
    54    82    81   ar
    55    46    47    2
    56    54    56    1
    57    58    57    1
    58    58    61    1
    59   106   105    1
    60    77    84   am
    61    50    49    1
    62    65    67   ar
    63    65    63   ar
    64    81    83   ar
    65    67    66   ar
    66    63    62   ar
    67    30    31    2
    68    30    29    1
    69    66    64   ar
    70   133   131    1
    71    62    64   ar
    72    62    61    1
    73    84    85    1
    74    29    32    1
    75    29    28    1
    76   131   132    1
    77   131   130    2
    78    89    88    1
    79    89    90    1
    80    85    88    1
    81    85    86    1
    82    32    33    1
    83   130   129    1
    84    90    91    1
    85    92    86   am
    86    92    93    1
    87    86    87    2
    88    26    25    1
    89    94    95    2
    90    94    93    1
    91   129   128    1
    92    93    96    1
    93    24    25    2
    94    24    23    1
    95   128   127    1
    96    25    27    1
    97    20    19    2
    98    99    98   ar
    99    23    22    1
   100    96    97    1
   101   127   124    1
   102    98   100   ar
   103    98    97    1
   104    22    21    1
   105   123   124    1
   106    19    18    1
   107   124   125    1
   108    21    18    1
   109    17    18    1
   110   125   126    2
   111    15    14    1
   112    15    16    1
   113    13    14    1
   114    13    10    1
   115    11    10    1
   116    11    12    2
   117    10     9    1
   118     1     2    1
   119     2     3    1
   120     8     7    2
   121     9     7   am
   122     7     6    1
   123     3     4    2
   124     6     5    1
