@<TRIPOS>MOLECULE
tmp/1pkfA01.pdb
 211 202 0 0 0
SMALL
GASTEIGER

@<TRIPOS>ATOM
      1  N         -2.7860   48.6150   16.7390 N.3    58  ARG58      -0.1245
      2  CA        -3.0710   48.7330   15.3290 C.3    58  ARG58       0.1563
      3  C         -4.3450   49.5340   15.1270 C.2    58  ARG58       0.2260
      4  O         -4.6350   49.9610   14.0170 O.2    58  ARG58      -0.2867
      5  CB        -3.1780   47.3550   14.6690 C.3    58  ARG58       0.0307
      6  CG        -1.8390   46.7560   14.3440 C.3    58  ARG58       0.0489
      7  CD        -1.1200   46.2010   15.5530 C.3    58  ARG58       0.2205
      8  NE         0.0560   45.3920   15.1950 N.pl3  58  ARG58      -0.0865
      9  CZ         1.2990   45.5880   15.6350 C.cat  58  ARG58       0.5346
     10  NH1        1.5990   46.5710   16.4460 N.pl3  58  ARG58       0.1354
     11  NH2        2.2630   44.7760   15.2550 N.pl3  58  ARG58       0.1354
     12  N         -7.6290   46.4470    8.5760 N.3    67  TYR67      -0.1241
     13  CA        -6.8820   45.4560    9.3660 C.3    67  TYR67       0.1605
     14  C         -7.7860   44.6320   10.2830 C.2    67  TYR67       0.2264
     15  O         -7.6510   43.4120   10.3530 O.2    67  TYR67      -0.2867
     16  CB        -5.7460   46.0920   10.1890 C.3    67  TYR67       0.0534
     17  CG        -4.8800   45.0600   10.8990 C.ar   67  TYR67      -0.0201
     18  CD1       -4.1990   44.1050   10.1790 C.ar   67  TYR67      -0.0009
     19  CD2       -4.7960   45.0130   12.2800 C.ar   67  TYR67      -0.0009
     20  CE1       -3.4090   43.1550   10.8000 C.ar   67  TYR67       0.0417
     21  CE2       -3.9840   44.0550   12.9250 C.ar   67  TYR67       0.0417
     22  CZ        -3.3010   43.1330   12.1680 C.ar   67  TYR67       0.1957
     23  OH        -2.5320   42.1410   12.7190 O.3    67  TYR67      -0.2866
     24  N         -7.9620   38.5270   19.4150 N.3    77  MET77      -0.1230
     25  CA        -6.5240   38.5910   19.6450 C.3    77  MET77       0.1702
     26  C         -5.9430   39.9580   19.3320 C.2    77  MET77       0.2592
     27  O         -4.9890   40.3800   20.0030 O.2    77  MET77      -0.2718
     28  CB        -5.7740   37.5390   18.8610 C.3    77  MET77       0.0401
     29  CG        -4.3730   37.3650   19.3940 C.3    77  MET77       0.0596
     30  SD        -3.3630   36.2260   18.4550 S.3    77  MET77      -0.1393
     31  CE        -3.8940   34.6500   19.0860 C.3    77  MET77       0.0692
     32  N         -6.5230   40.6450   18.3320 N.am   78  LYS78      -0.1980
     33  CA        -6.0530   41.9600   17.9110 C.3    78  LYS78       0.1596
     34  C         -6.5330   43.0520   18.8650 C.2    78  LYS78       0.2287
     35  O         -5.8580   44.0490   19.0650 O.2    78  LYS78      -0.2864
     36  CB        -6.5240   42.2970   16.4870 C.3    78  LYS78       0.0298
     37  CG        -5.9040   41.4490   15.3550 C.3    78  LYS78       0.0038
     38  CD        -6.4920   41.8470   13.9550 C.3    78  LYS78       0.0206
     39  CE        -5.8850   41.0510   12.8040 C.3    78  LYS78       0.1093
     40  NZ        -6.5590   41.2330   11.4650 N.3    78  LYS78      -0.1314
     41  N         -5.1990   41.5130   22.7820 N.3    81  GLY81      -0.1210
     42  CA        -3.8500   40.9580   22.8880 C.3    81  GLY81       0.1956
     43  C         -2.8860   42.0640   23.2570 C.2    81  GLY81       0.2612
     44  O         -3.3160   43.1930   23.3740 O.2    81  GLY81      -0.2717
     45  N         -1.6000   41.7590   23.4290 N.am   82  LEU82      -0.1965
     46  CA        -0.6790   42.7250   23.9800 C.3    82  LEU82       0.1728
     47  C         -0.4400   43.9160   23.0480 C.2    82  LEU82       0.2616
     48  O         -0.1350   45.0250   23.5140 O.2    82  LEU82      -0.2715
     49  CB         0.6310   42.0490   24.3830 C.3    82  LEU82       0.0311
     50  CG         0.4340   41.1670   25.6330 C.3    82  LEU82       0.0022
     51  CD1        1.5640   40.1990   25.8400 C.3    82  LEU82       0.0001
     52  CD2        0.2420   42.0040   26.8810 C.3    82  LEU82       0.0001
     53  N         -0.6320   43.7310   21.7510 N.am   83  PHE83      -0.1974
     54  CA        -0.4320   44.8560   20.8290 C.3    83  PHE83       0.1639
     55  C         -1.6420   45.8100   20.8100 C.2    83  PHE83       0.2290
     56  O         -1.4720   47.0210   20.6610 O.2    83  PHE83      -0.2864
     57  CB        -0.0350   44.3750   19.4250 C.3    83  PHE83       0.0560
     58  CG         1.3890   43.8620   19.3300 C.ar   83  PHE83      -0.0200
     59  CD1        1.7930   43.0880   18.2470 C.ar   83  PHE83      -0.0042
     60  CD2        2.3130   44.1220   20.3360 C.ar   83  PHE83      -0.0042
     61  CE1        3.0940   42.6140   18.1400 C.ar   83  PHE83      -0.0003
     62  CE2        3.6250   43.6490   20.2440 C.ar   83  PHE83      -0.0003
     63  CZ         4.0230   42.8960   19.1500 C.ar   83  PHE83      -0.0000
     64  N          1.1240   33.8370   13.4590 N.3   167  ALA167     -0.1231
     65  CA         2.1030   34.8960   13.2410 C.3   167  ALA167      0.1694
     66  C          1.9230   35.4370   11.8060 C.2   167  ALA167      0.2591
     67  O          1.9020   36.6340   11.6160 O.2   167  ALA167     -0.2718
     68  CB         3.5300   34.4140   13.5100 C.3   167  ALA167      0.0304
     69  N          1.7480   34.5700   10.8120 N.am  168  ARG168     -0.1980
     70  CA         1.5400   35.0690    9.4590 C.3   168  ARG168      0.1597
     71  C          0.1850   35.7340    9.2710 C.2   168  ARG168      0.2287
     72  O          0.1020   36.7890    8.6370 O.2   168  ARG168     -0.2864
     73  CB         1.6670   33.9690    8.4280 C.3   168  ARG168      0.0334
     74  CG         3.0090   33.4130    8.2330 C.3   168  ARG168      0.0492
     75  CD         2.9250   32.1900    7.3850 C.3   168  ARG168      0.2205
     76  NE         4.1440   31.4160    7.4450 N.pl3 168  ARG168     -0.0865
     77  CZ         5.0370   31.4040    6.5010 C.cat 168  ARG168      0.5346
     78  NH1        4.8390   32.1340    5.4260 N.pl3 168  ARG168      0.1354
     79  NH2        6.1350   30.6840    6.6250 N.pl3 168  ARG168      0.1354
     80  N         -1.6200   37.3640   11.2480 N.3   170  LEU170     -0.1231
     81  CA        -1.6050   38.7030   11.8020 C.3   170  LEU170      0.1693
     82  C         -0.9540   39.6970   10.8430 C.2   170  LEU170      0.2592
     83  O         -1.1210   40.8840   10.9800 O.2   170  LEU170     -0.2718
     84  CB        -0.8520   38.7100   13.1360 C.3   170  LEU170      0.0284
     85  CG        -1.5580   37.9960   14.2790 C.3   170  LEU170      0.0019
     86  CD1       -0.6130   37.9140   15.4780 C.3   170  LEU170      0.0001
     87  CD2       -2.8670   38.6440   14.6560 C.3   170  LEU170      0.0001
     88  N         -0.1610   39.2230    9.9070 N.am  171  GLY171     -0.1957
     89  CA         0.3690   40.0940    8.8750 C.3   171  GLY171      0.1869
     90  C         -0.6340   40.5060    7.7790 C.2   171  GLY171      0.2309
     91  O         -0.3930   41.4840    7.0610 O.2   171  GLY171     -0.2863
     92  N         -1.6340   44.0920    6.9310 N.3   174  LEU174     -0.1231
     93  CA        -0.7460   44.9330    7.7210 C.3   174  LEU174      0.1693
     94  C          0.5580   45.0860    7.0070 C.2   174  LEU174      0.2591
     95  O          1.0190   46.1840    6.8180 O.2   174  LEU174     -0.2718
     96  CB        -0.4760   44.3230    9.0990 C.3   174  LEU174      0.0284
     97  CG         0.1610   45.1900   10.1930 C.3   174  LEU174      0.0019
     98  CD1        1.5730   45.5520    9.8250 C.3   174  LEU174      0.0001
     99  CD2       -0.6130   46.4500   10.4190 C.3   174  LEU174      0.0001
    100  N          1.1680   43.9640    6.6740 N.am  175  VAL175     -0.1980
    101  CA         2.4190   43.9300    5.9550 C.3   175  VAL175      0.1595
    102  C          2.1580   43.3100    4.5880 C.2   175  VAL175      0.2287
    103  O          1.2300   42.5300    4.4230 O.2   175  VAL175     -0.2864
    104  CB         3.5140   43.1650    6.7670 C.3   175  VAL175      0.0276
    105  CG1        3.5720   43.6970    8.1760 C.3   175  VAL175      0.0022
    106  CG2        3.2500   41.7110    6.8070 C.3   175  VAL175      0.0022
    107  N         -0.8850   34.5800   21.9640 N.3   237  ALA237     -0.1245
    108  CA         0.2230   35.4160   21.4800 C.3   237  ALA237      0.1562
    109  C          1.5620   34.8490   21.8900 C.2   237  ALA237      0.2260
    110  O          2.5340   34.8950   21.1270 O.2   237  ALA237     -0.2867
    111  CB         0.0790   36.8580   22.0060 C.3   237  ALA237      0.0290
    112  N          2.2120   32.0590   19.4570 N.3   240  ALA240     -0.1231
    113  CA         2.5790   32.5620   18.1520 C.3   240  ALA240      0.1694
    114  C          3.9270   33.3390   18.1680 C.2   240  ALA240      0.2591
    115  O          4.7280   33.1920   17.2820 O.2   240  ALA240     -0.2718
    116  CB         1.4980   33.4520   17.6510 C.3   240  ALA240      0.0304
    117  N          4.1250   34.2020   19.1550 N.am  241  ALA241     -0.1980
    118  CA         5.3720   34.9490   19.2560 C.3   241  ALA241      0.1597
    119  C          6.5780   34.0410   19.4990 C.2   241  ALA241      0.2287
    120  O          7.6760   34.3390   19.0560 O.2   241  ALA241     -0.2864
    121  CB         5.2830   36.0090   20.3480 C.3   241  ALA241      0.0319
    122  N         10.1940   32.5220   15.9650 N.3   245  THR245     -0.1218
    123  CA        11.3350   33.3370   16.3720 C.3   245  THR245      0.1862
    124  C         12.4620   32.4720   16.8880 C.2   245  THR245      0.2287
    125  O         13.5920   32.5950   16.4790 O.2   245  THR245     -0.2866
    126  CB        10.8990   34.3310   17.4760 C.3   245  THR245      0.1770
    127  OG1       10.1290   33.6600   18.4910 O.3   245  THR245     -0.2211
    128  CG2        9.9330   35.3590   16.9290 C.3   245  THR245      0.0375
    129  N         17.1010   38.2230   12.8760 N.3   287  ILE287     -0.1231
    130  CA        16.1680   37.3840   12.1520 C.3   287  ILE287      0.1692
    131  C         15.0410   38.1520   11.4930 C.2   287  ILE287      0.2591
    132  O         14.3080   37.5780   10.6840 O.2   287  ILE287     -0.2718
    133  CB        15.5670   36.2760   13.0860 C.3   287  ILE287      0.0266
    134  CG1       14.7870   36.8950   14.2410 C.3   287  ILE287      0.0019
    135  CG2       16.6660   35.3480   13.5610 C.3   287  ILE287      0.0020
    136  CD1       13.9680   35.8900   15.0740 C.3   287  ILE287      0.0001
    137  N         14.8600   39.4210   11.8370 N.am  288  LEU288     -0.1980
    138  CA        13.7510   40.1680   11.2790 C.3   288  LEU288      0.1596
    139  C         14.0830   40.6480    9.8570 C.2   288  LEU288      0.2287
    140  O         15.2290   40.9890    9.5740 O.2   288  LEU288     -0.2864
    141  CB        13.3730   41.3230   12.1610 C.3   288  LEU288      0.0297
    142  CG        12.7790   40.9200   13.4970 C.3   288  LEU288      0.0022
    143  CD1       12.6600   42.1060   14.4230 C.3   288  LEU288      0.0001
    144  CD2       11.3960   40.2510   13.2950 C.3   288  LEU288      0.0001
    145  N         11.3810   44.7360   10.5960 N.3   291  GLY291     -0.1210
    146  CA        11.4950   45.1160   11.9870 C.3   291  GLY291      0.1956
    147  C         10.1590   45.0500   12.6540 C.2   291  GLY291      0.2613
    148  O          9.4530   44.0770   12.5080 O.2   291  GLY291     -0.2717
    149  N          9.8240   46.0760   13.4200 N.am  292  THR292     -0.1938
    150  CA         8.5380   46.1070   14.0770 C.3   292  THR292      0.2028
    151  C          7.9100   47.4440   13.7550 C.2   292  THR292      0.2642
    152  O          8.5420   48.2710   13.0980 O.2   292  THR292     -0.2714
    153  CB         8.6930   45.8220   15.5860 C.3   292  THR292      0.1808
    154  OG1        7.3940   45.7570   16.1980 O.3   292  THR292     -0.2208
    155  CG2        9.4390   46.9740   16.2800 C.3   292  THR292      0.0379
    156  N          6.6720   47.6370   14.1620 N.am  293  VAL293     -0.1977
    157  CA         5.9030   48.7930   13.7430 C.3   293  VAL293      0.1596
    158  C          5.3880   49.6260   14.9090 C.2   293  VAL293      0.2287
    159  O          5.1460   49.1220   16.0070 O.2   293  VAL293     -0.2864
    160  CB         4.6700   48.4030   12.8670 C.3   293  VAL293      0.0276
    161  CG1        5.1580   47.8250   11.5940 C.3   293  VAL293      0.0022
    162  CG2        3.7710   47.3750   13.5590 C.3   293  VAL293      0.0022
    163  N          7.9780   51.7290   10.4860 N.3   314  PHE314     -0.1241
    164  CA         8.7590   50.5350   10.7030 C.3   314  PHE314      0.1605
    165  C         10.0980   50.9170   11.2830 C.2   314  PHE314      0.2264
    166  O         10.7500   51.8310   10.7820 O.2   314  PHE314     -0.2867
    167  CB         9.0410   49.8320    9.3780 C.3   314  PHE314      0.0534
    168  CG         8.1180   48.7070    9.0760 C.ar  314  PHE314     -0.0203
    169  CD1        7.0700   48.8820    8.1870 C.ar  314  PHE314     -0.0042
    170  CD2        8.3130   47.4590    9.6520 C.ar  314  PHE314     -0.0042
    171  CE1        6.2030   47.8010    7.8870 C.ar  314  PHE314     -0.0003
    172  CE2        7.4460   46.3740    9.3340 C.ar  314  PHE314     -0.0003
    173  CZ         6.4020   46.5630    8.4580 C.ar  314  PHE314     -0.0000
    174  N         17.3480   43.7150   19.9450 N.3   344  ALA344     -0.1245
    175  CA        16.7200   42.5680   19.3150 C.3   344  ALA344      0.1562
    176  C         15.4960   42.0850   20.0690 C.2   344  ALA344      0.2260
    177  O         14.6290   41.5150   19.4640 O.2   344  ALA344     -0.2867
    178  CB        17.7210   41.4280   19.1340 C.3   344  ALA344      0.0290
    179  N          8.8640   34.6750    4.3130 N.3   387  HIS387     -0.1227
    180  CA         8.0710   35.0520    5.4760 C.3   387  HIS387      0.1737
    181  C          7.9760   36.5720    5.5640 C.2   387  HIS387      0.2438
    182  O          8.9640   37.2800    5.3980 O.2   387  HIS387     -0.2733
    183  CB         8.6940   34.5010    6.7530 C.3   387  HIS387      0.0758
    184  CG         7.7760   34.5190    7.9270 C.ar  387  HIS387      0.0818
    185  ND1        7.3560   35.6880    8.5320 N.ar  387  HIS387     -0.2268
    186  CD2        7.2220   33.5000    8.6350 C.ar  387  HIS387      0.1154
    187  CE1        6.5620   35.3850    9.5490 C.ar  387  HIS387      0.1986
    188  NE2        6.4540   34.0650    9.6250 N.ar  387  HIS387     -0.2212
    189  N          6.7940   37.1040    5.7880 N.am  388  PRO388     -0.2718
    190  CA         6.6770   38.5580    5.7780 C.3   388  PRO388      0.1535
    191  C          7.3980   39.2320    6.9380 C.2   388  PRO388      0.2598
    192  O          7.6890   40.4410    6.8210 O.2   388  PRO388     -0.2715
    193  CB         5.1850   38.7870    5.9270 C.3   388  PRO388      0.0310
    194  CG         4.7370   37.5920    6.7000 C.3   388  PRO388      0.0237
    195  CD         5.5010   36.4550    6.0600 C.3   388  PRO388      0.0939
    196  N          7.6070   38.5300    8.0540 N.am  389  ALA389     -0.1964
    197  CA         8.3080   39.1560    9.2200 C.3   389  ALA389      0.1728
    198  C          9.7620   38.7680    9.3830 C.2   389  ALA389      0.2616
    199  O         10.5420   39.5210    9.9860 O.2   389  ALA389     -0.2715
    200  CB         7.6070   38.8150   10.4980 C.3   389  ALA389      0.0334
    201  N         10.1000   37.5610    8.9480 N.am  390  PHE390     -0.1974
    202  CA        11.3810   36.9430    9.2420 C.3   390  PHE390      0.1639
    203  C         12.2100   36.6270    7.9930 C.2   390  PHE390      0.2290
    204  O         11.6770   36.2990    6.9260 O.2   390  PHE390     -0.2864
    205  CB        11.1830   35.6390   10.0180 C.3   390  PHE390      0.0560
    206  CG        10.4310   35.8090   11.3120 C.ar  390  PHE390     -0.0200
    207  CD1        9.2560   35.1020   11.5510 C.ar  390  PHE390     -0.0042
    208  CD2       10.8920   36.6810   12.2810 C.ar  390  PHE390     -0.0042
    209  CE1        8.5850   35.2610   12.7270 C.ar  390  PHE390     -0.0003
    210  CE2       10.2240   36.8550   13.4450 C.ar  390  PHE390     -0.0003
    211  CZ         9.0680   36.1360   13.6880 C.ar  390  PHE390     -0.0000
@<TRIPOS>BOND
     1   179   180    1
     2   103   102    2
     3   102   101    1
     4   182   181    2
     5    78    77    1
     6   180   181    1
     7   180   183    1
     8   181   189   am
     9   190   189    1
    10   190   193    1
    11   190   191    1
    12   189   195    1
    13   193   194    1
    14   101   100    1
    15   101   104    1
    16   195   194    1
    17    77    79    1
    18    77    76    2
    19   100    94   am
    20   183   184    1
    21   104   106    1
    22   104   105    1
    23    95    94    2
    24   192   191    2
    25   204   203    2
    26    92    93    1
    27   191   196   am
    28    94    93    1
    29    91    90    2
    30    75    76    1
    31    75    74    1
    32    93    96    1
    33    90    89    1
    34   171   169   ar
    35   171   173   ar
    36   184   185   ar
    37   184   186   ar
    38   203   202    1
    39   196   197    1
    40   169   168   ar
    41    74    73    1
    42    73    70    1
    43   173   172   ar
    44   185   187   ar
    45    12    13    1
    46   186   188   ar
    47    72    71    2
    48    89    88    1
    49   201   202    1
    50   201   198   am
    51   168   167    1
    52   168   170   ar
    53    96    97    1
    54   197   198    1
    55   197   200    1
    56   202   205    1
    57    71    70    1
    58   172   170   ar
    59    13    16    1
    60    13    14    1
    61   167   164    1
    62   198   199    2
    63    70    69    1
    64   187   188   ar
    65   140   139    2
    66    98    97    1
    67   139   138    1
    68    88    82   am
    69   205   206    1
    70    18    20   ar
    71    18    17   ar
    72    16    17    1
    73    97    99    1
    74    14    15    2
    75   163   164    1
    76   145   146    1
    77   132   131    2
    78   164   165    1
    79   166   165    2
    80    20    22   ar
    81    69    66   am
    82    82    83    2
    83    82    81    1
    84    17    19   ar
    85    80    81    1
    86   138   137    1
    87   138   141    1
    88   206   207   ar
    89   206   208   ar
    90    40    39    1
    91   131   137   am
    92   131   130    1
    93   207   209   ar
    94   161   160    1
    95    67    66    2
    96    81    84    1
    97    66    65    1
    98   146   147    1
    99   130   129    1
   100   130   133    1
   101   141   142    1
   102    22    23    1
   103    22    21   ar
   104    19    21   ar
   105   208   210   ar
   106   148   147    2
   107   147   149   am
   108   209   211   ar
   109    39    38    1
   110   160   162    1
   111   160   157    1
   112   133   135    1
   113   133   134    1
   114   152   151    2
   115    84    85    1
   116    65    64    1
   117    65    68    1
   118   144   142    1
   119   149   150    1
   120   210   211   ar
   121   142   143    1
   122   157   156    1
   123   157   158    1
   124   151   150    1
   125   151   156   am
   126    38    37    1
   127     4     3    2
   128   150   153    1
   129   134   136    1
   130    85    87    1
   131    85    86    1
   132     6     5    1
   133     6     7    1
   134     5     2    1
   135   158   159    2
   136     3     2    1
   137     8     7    1
   138     8     9    2
   139    11     9    1
   140     2     1    1
   141    37    36    1
   142   153   154    1
   143   153   155    1
   144     9    10    1
   145   122   123    1
   146   123   124    1
   147   123   126    1
   148   125   124    2
   149    36    33    1
   150   128   126    1
   151   115   114    2
   152   126   127    1
   153   116   113    1
   154    33    32    1
   155    33    34    1
   156    61    59   ar
   157    61    63   ar
   158   113   114    1
   159   113   112    1
   160   114   117   am
   161    59    58   ar
   162    32    26   am
   163    30    31    1
   164    30    29    1
   165    28    29    1
   166    28    25    1
   167    34    35    2
   168   120   119    2
   169   178   175    1
   170    63    62   ar
   171   117   118    1
   172   118   119    1
   173   118   121    1
   174   175   174    1
   175   175   176    1
   176    58    57    1
   177    58    60   ar
   178    26    25    1
   179    26    27    2
   180    24    25    1
   181    57    54    1
   182   177   176    2
   183    62    60   ar
   184    56    55    2
   185    55    54    1
   186    54    53    1
   187   110   109    2
   188   108   109    1
   189   108   107    1
   190   108   111    1
   191    53    47   am
   192    41    42    1
   193    42    43    1
   194    47    48    2
   195    47    46    1
   196    43    44    2
   197    43    45   am
   198    45    46    1
   199    46    49    1
   200    49    50    1
   201    50    51    1
   202    50    52    1
