@<TRIPOS>MOLECULE
tmp/1pkgB00.pdb
 156 148 0 0 0
SMALL
GASTEIGER

@<TRIPOS>ATOM
      1  N         52.1920    9.7280   -9.4910 N.3    28  LEU28      -0.1231
      2  CA        53.5340    9.6560  -10.0480 C.3    28  LEU28       0.1693
      3  C         54.4120    8.5320   -9.4560 C.2    28  LEU28       0.2593
      4  O         55.1220    7.8450  -10.1770 O.2    28  LEU28      -0.2718
      5  CB        54.2330   11.0080   -9.8900 C.3    28  LEU28       0.0284
      6  CG        53.9480   12.0830  -10.9330 C.3    28  LEU28       0.0019
      7  CD1       54.5640   13.4170  -10.4960 C.3    28  LEU28       0.0001
      8  CD2       54.4510   11.6560  -12.3100 C.3    28  LEU28       0.0001
      9  N         54.3710    8.3610   -8.1430 N.am   29  GLY29      -0.1942
     10  CA        55.1440    7.3300   -7.4940 C.3    29  GLY29       0.2014
     11  C         54.8240    7.2830   -6.0210 C.2    29  GLY29       0.2639
     12  O         54.4130    8.2680   -5.4290 O.2    29  GLY29      -0.2714
     13  N         54.9810    6.1020   -5.4450 N.am   30  ALA30      -0.1963
     14  CA        54.9100    5.9160   -4.0080 C.3    30  ALA30       0.1728
     15  C         56.2840    5.4760   -3.6160 C.2    30  ALA30       0.2617
     16  O         57.0640    5.0640   -4.4610 O.2    30  ALA30      -0.2715
     17  CB        53.9040    4.8450   -3.6490 C.3    30  ALA30       0.0334
     18  N         56.5860    5.5750   -2.3350 N.am   31  GLY31      -0.1940
     19  CA        57.8580    5.1160   -1.8180 C.3    31  GLY31       0.2014
     20  C         57.6650    4.7110   -0.3870 C.2    31  GLY31       0.2639
     21  O         56.6440    4.1400   -0.0720 O.2    31  GLY31      -0.2714
     22  N         58.6190    5.0270    0.4780 N.am   32  ALA32      -0.1963
     23  CA        58.5400    4.5850    1.8660 C.3    32  ALA32       0.1728
     24  C         58.0510    5.6360    2.8590 C.2    32  ALA32       0.2616
     25  O         57.6990    5.2730    3.9810 O.2    32  ALA32      -0.2715
     26  CB        59.8600    3.9810    2.3190 C.3    32  ALA32       0.0334
     27  N         58.0030    6.9120    2.4490 N.am   33  PHE33      -0.1960
     28  CA        57.6390    8.0150    3.3470 C.3    33  PHE33       0.1771
     29  C         56.5640    8.9050    2.7410 C.2    33  PHE33       0.2620
     30  O         56.4690   10.1030    3.0790 O.2    33  PHE33      -0.2715
     31  CB        58.8570    8.8900    3.6880 C.3    33  PHE33       0.0574
     32  CG        60.0270    8.1320    4.2540 C.ar   33  PHE33      -0.0200
     33  CD1       61.0240    7.6470    3.4240 C.ar   33  PHE33      -0.0042
     34  CD2       60.1450    7.9170    5.6130 C.ar   33  PHE33      -0.0042
     35  CE1       62.0960    6.9480    3.9410 C.ar   33  PHE33      -0.0003
     36  CE2       61.2220    7.2150    6.1230 C.ar   33  PHE33      -0.0003
     37  CZ        62.1880    6.7350    5.2860 C.ar   33  PHE33      -0.0000
     38  N         55.7720    8.3450    1.8290 N.am   34  GLY34      -0.1954
     39  CA        54.7490    9.1260    1.1430 C.3    34  GLY34       0.1869
     40  C         54.3120    8.7080   -0.2610 C.2    34  GLY34       0.2309
     41  O         54.9060    7.8180   -0.8900 O.2    34  GLY34      -0.2863
     42  N         53.3200   10.4890   -4.1300 N.3    36  VAL36      -0.1245
     43  CA        53.5930   11.6800   -4.9330 C.3    36  VAL36       0.1561
     44  C         52.6760   11.6900   -6.1640 C.2    36  VAL36       0.2260
     45  O         52.5980   10.7320   -6.9200 O.2    36  VAL36      -0.2867
     46  CB        55.1140   11.7790   -5.3650 C.3    36  VAL36       0.0252
     47  CG1       55.4030   13.0800   -6.1150 C.3    36  VAL36       0.0019
     48  CG2       56.0760   11.6190   -4.1750 C.3    36  VAL36       0.0019
     49  N         55.1700   18.3600   -8.8150 N.3    54  ALA54      -0.1245
     50  CA        54.8620   17.1220   -8.1260 C.3    54  ALA54       0.1562
     51  C         54.4040   17.4990   -6.7410 C.2    54  ALA54       0.2260
     52  O         54.9150   18.4520   -6.1840 O.2    54  ALA54      -0.2867
     53  CB        56.0680   16.2770   -8.0320 C.3    54  ALA54       0.0290
     54  N         54.0220   15.7700   -2.8570 N.3    56  LYS56      -0.1245
     55  CA        54.2720   14.6460   -1.9650 C.3    56  LYS56       0.1561
     56  C         53.3320   14.6690   -0.7600 C.2    56  LYS56       0.2260
     57  O         53.1550   15.6860   -0.1170 O.2    56  LYS56      -0.2867
     58  CB        55.7430   14.6550   -1.5270 C.3    56  LYS56       0.0271
     59  CG        56.1870   13.5410   -0.5740 C.3    56  LYS56       0.0035
     60  CD        57.2970   12.7430   -1.1980 C.3    56  LYS56       0.0206
     61  CE        58.3910   12.4970   -0.2230 C.3    56  LYS56       0.1093
     62  NZ        59.6520   12.2120   -0.9410 N.3    56  LYS56      -0.1314
     63  N         66.4310   18.0440   -6.5600 N.3    87  VAL87      -0.1245
     64  CA        65.0290   18.3450   -6.7570 C.3    87  VAL87       0.1561
     65  C         64.7620   19.6800   -6.0570 C.2    87  VAL87       0.2260
     66  O         65.1480   19.9000   -4.9070 O.2    87  VAL87      -0.2867
     67  CB        64.1030   17.1570   -6.3330 C.3    87  VAL87       0.0252
     68  CG1       64.1000   16.9590   -4.8390 C.3    87  VAL87       0.0019
     69  CG2       62.7020   17.3310   -6.8620 C.3    87  VAL87       0.0019
     70  N         57.3180   20.1690   -5.3310 N.3   103  THR103     -0.1203
     71  CA        58.6120   20.2160   -5.9900 C.3   103  THR103      0.1994
     72  C         58.3750   20.3070   -7.4670 C.2   103  THR103      0.2618
     73  O         57.2470   20.1440   -7.9070 O.2   103  THR103     -0.2717
     74  CB        59.4140   18.9560   -5.6830 C.3   103  THR103      0.1784
     75  OG1       58.9490   17.8720   -6.4990 O.3   103  THR103     -0.2211
     76  CG2       59.1630   18.4810   -4.2320 C.3   103  THR103      0.0376
     77  N         59.4280   20.5540   -8.2390 N.am  104  GLU104     -0.1965
     78  CA        59.3080   20.5870   -9.6870 C.3   104  GLU104      0.1733
     79  C         58.9150   19.2210  -10.1750 C.2   104  GLU104      0.2616
     80  O         59.2590   18.2070   -9.5790 O.2   104  GLU104     -0.2715
     81  CB        60.6020   21.0240  -10.3390 C.3   104  GLU104      0.0429
     82  CG        61.6740   19.9550  -10.3310 C.3   104  GLU104      0.1163
     83  CD        63.0930   20.5070  -10.1930 C.2   104  GLU104      0.3649
     84  OE1       63.7900   20.0620   -9.2460 O.co2 104  GLU104     -0.2457
     85  OE2       63.5130   21.3730  -11.0290 O.co2 104  GLU104     -0.2457
     86  N         58.1510   19.1960  -11.2470 N.am  105  TYR105     -0.1960
     87  CA        57.8070   17.9460  -11.8890 C.3   105  TYR105      0.1771
     88  C         58.9510   17.4780  -12.8070 C.2   105  TYR105      0.2619
     89  O         59.5670   18.2860  -13.5310 O.2   105  TYR105     -0.2715
     90  CB        56.5020   18.1230  -12.6540 C.3   105  TYR105      0.0574
     91  CG        56.1190   16.9740  -13.5400 C.ar  105  TYR105     -0.0198
     92  CD1       56.2970   17.0460  -14.9150 C.ar  105  TYR105     -0.0009
     93  CD2       55.5700   15.8210  -13.0060 C.ar  105  TYR105     -0.0009
     94  CE1       55.9330   16.0050  -15.7300 C.ar  105  TYR105      0.0417
     95  CE2       55.2100   14.7690  -13.8160 C.ar  105  TYR105      0.0417
     96  CZ        55.3880   14.8670  -15.1760 C.ar  105  TYR105      0.1957
     97  OH        55.0150   13.8180  -15.9800 O.3   105  TYR105     -0.2866
     98  N         59.2460   16.1800  -12.7600 N.am  106  CYS106     -0.1968
     99  CA        60.2950   15.6140  -13.5880 C.3   106  CYS106      0.1712
    100  C         59.6940   14.6560  -14.6000 C.2   106  CYS106      0.2296
    101  O         59.3800   13.5320  -14.2770 O.2   106  CYS106     -0.2864
    102  CB        61.3300   14.9220  -12.7110 C.3   106  CYS106      0.0983
    103  SG        62.3470   16.0550  -11.7130 S.3   106  CYS106     -0.0798
    104  N         60.1380   10.5940  -14.7140 N.3   109  GLY109     -0.1210
    105  CA        59.8600    9.7600  -13.5550 C.3   109  GLY109      0.1956
    106  C         61.1460    9.4770  -12.8320 C.2   109  GLY109      0.2611
    107  O         62.0640   10.2940  -12.8700 O.2   109  GLY109     -0.2717
    108  N         61.2220    8.3260  -12.1800 N.am  110  ASP110     -0.1973
    109  CA        62.4720    7.9190  -11.5400 C.3   110  ASP110      0.1709
    110  C         63.3700    7.0770  -12.4500 C.2   110  ASP110      0.2293
    111  O         62.9030    6.4410  -13.4250 O.2   110  ASP110     -0.2864
    112  CB        62.2400    7.2000  -10.1980 C.3   110  ASP110      0.1436
    113  CG        61.5270    5.8650  -10.3510 C.2   110  ASP110      0.3671
    114  OD1       60.2750    5.8860  -10.5320 O.co2 110  ASP110     -0.2456
    115  OD2       62.1330    4.7570  -10.3020 O.co2 110  ASP110     -0.2456
    116  N         65.5950    4.8080   -7.5730 N.3   157  ARG157     -0.1231
    117  CA        64.2110    5.1910   -7.2850 C.3   157  ARG157      0.1694
    118  C         64.1670    6.6220   -6.7800 C.2   157  ARG157      0.2592
    119  O         63.1440    7.2940   -6.8810 O.2   157  ARG157     -0.2718
    120  CB        63.5300    4.2460   -6.2690 C.3   157  ARG157      0.0321
    121  CG        64.3910    3.8920   -5.0640 C.3   157  ARG157      0.0489
    122  CD        63.6400    3.4400   -3.8310 C.3   157  ARG157      0.2205
    123  NE        64.4700    3.5780   -2.6380 N.pl3 157  ARG157     -0.0865
    124  CZ        65.3730    2.6920   -2.2500 C.cat 157  ARG157      0.5346
    125  NH1       66.0920    2.9140   -1.1630 N.pl3 157  ARG157      0.1354
    126  NH2       65.5670    1.5810   -2.9490 N.pl3 157  ARG157      0.1354
    127  N         65.2950    7.0690   -6.2340 N.am  158  ASN158     -0.1974
    128  CA        65.4340    8.4100   -5.7040 C.3   158  ASN158      0.1688
    129  C         66.2650    9.3320   -6.5780 C.2   158  ASN158      0.2292
    130  O         66.7920   10.3340   -6.0860 O.2   158  ASN158     -0.2864
    131  CB        66.0130    8.3440   -4.3160 C.3   158  ASN158      0.1181
    132  CG        65.0830    7.6830   -3.3480 C.2   158  ASN158      0.2629
    133  OD1       63.8570    7.6930   -3.5400 O.2   158  ASN158     -0.2716
    134  ND2       65.6470    7.1020   -2.2940 N.am  158  ASN158     -0.0877
    135  N         65.3210   11.3590  -10.0610 N.3   160  LEU160     -0.1245
    136  CA        64.3010   11.7240  -11.0400 C.3   160  LEU160      0.1561
    137  C         64.9370   12.0980  -12.3790 C.2   160  LEU160      0.2260
    138  O         65.9370   12.8060  -12.3910 O.2   160  LEU160     -0.2867
    139  CB        63.4950   12.9210  -10.5220 C.3   160  LEU160      0.0270
    140  CG        62.8180   12.8410   -9.1660 C.3   160  LEU160      0.0019
    141  CD1       62.0980   14.1120   -8.8130 C.3   160  LEU160      0.0001
    142  CD2       61.8550   11.6940   -9.1870 C.3   160  LEU160      0.0001
    143  N         66.3290   13.2750   -5.3510 N.3   170  CYS170     -0.1221
    144  CA        65.1670   13.6250   -4.5500 C.3   170  CYS170      0.1808
    145  C         65.1100   12.7310   -3.3250 C.2   170  CYS170      0.2601
    146  O         66.0820   12.0470   -2.9970 O.2   170  CYS170     -0.2717
    147  CB        63.8890   13.4610   -5.3630 C.3   170  CYS170      0.0970
    148  SG        63.5140   11.7210   -5.6670 S.3   170  CYS170     -0.0800
    149  N         63.9490   12.7450   -2.6720 N.am  171  ASP171     -0.1973
    150  CA        63.6960   11.9810   -1.4510 C.3   171  ASP171      0.1709
    151  C         64.6550   12.2960   -0.2950 C.2   171  ASP171      0.2293
    152  O         65.7290   11.6980   -0.1890 O.2   171  ASP171     -0.2864
    153  CB        63.7030   10.4860   -1.7430 C.3   171  ASP171      0.1436
    154  CG        63.0300    9.6920   -0.6560 C.2   171  ASP171      0.3671
    155  OD1       62.6340    8.5280   -0.9110 O.co2 171  ASP171     -0.2456
    156  OD2       62.8460   10.1690    0.4830 O.co2 171  ASP171     -0.2456
@<TRIPOS>BOND
     1    97    96    1
     2    94    96   ar
     3    94    92   ar
     4    96    95   ar
     5    92    91   ar
     6   104   105    1
     7   100   101    2
     8   100    99    1
     9    95    93   ar
    10    99    98    1
    11    99   102    1
    12   105   106    1
    13    91    93   ar
    14    91    90    1
    15    89    88    2
    16   111   110    2
    17   107   106    2
    18   106   108   am
    19    88    98   am
    20    88    87    1
    21   102   103    1
    22    90    87    1
    23   110   109    1
    24   138   137    2
    25   137   136    1
    26     8     6    1
    27   108   109    1
    28    87    86    1
    29   109   112    1
    30    86    79   am
    31   136   139    1
    32   136   135    1
    33    85    83   ar
    34     6     7    1
    35     6     5    1
    36   114   113   ar
    37   139   140    1
    38   113   115   ar
    39   113   112    1
    40    81    82    1
    41    81    78    1
    42    82    83    1
    43    83    84   ar
    44     4     3    2
    45    79    78    1
    46    79    80    2
    47     2     5    1
    48     2     1    1
    49     2     3    1
    50    78    77    1
    51     3     9   am
    52   142   140    1
    53   140   141    1
    54    49    50    1
    55    77    72   am
    56     9    10    1
    57    50    53    1
    58    50    51    1
    59    73    72    2
    60   116   117    1
    61    10    11    1
    62    72    71    1
    63   117   118    1
    64   117   120    1
    65    45    44    2
    66   119   118    2
    67    69    67    1
    68   118   127   am
    69    64    63    1
    70    64    67    1
    71    64    65    1
    72    51    52    2
    73   129   130    2
    74   129   128    1
    75    75    74    1
    76    67    68    1
    77   120   121    1
    78   127   128    1
    79    44    43    1
    80    47    46    1
    81    65    66    2
    82    11    13   am
    83    11    12    2
    84    71    74    1
    85    71    70    1
    86   128   131    1
    87    74    76    1
    88   148   147    1
    89    13    14    1
    90    46    43    1
    91    46    48    1
    92   147   144    1
    93   143   144    1
    94   121   122    1
    95    43    42    1
    96   144   145    1
    97    16    15    2
    98   131   132    1
    99    14    17    1
   100    14    15    1
   101   122   123    1
   102    15    18   am
   103   133   132    2
   104   132   134   am
   105   145   146    2
   106   145   149   am
   107   126   124    1
   108    54    55    1
   109   149   150    1
   110   123   124    2
   111    18    19    1
   112   124   125    1
   113    55    58    1
   114    55    56    1
   115    19    20    1
   116   153   150    1
   117   153   154    1
   118    58    59    1
   119   150   151    1
   120    60    59    1
   121    60    61    1
   122    62    61    1
   123   155   154   ar
   124    41    40    2
   125    56    57    2
   126   154   156   ar
   127    20    21    2
   128    20    22   am
   129   151   152    2
   130    40    39    1
   131    22    23    1
   132    39    38    1
   133    38    29   am
   134    23    26    1
   135    23    24    1
   136    27    24   am
   137    27    28    1
   138    29    30    2
   139    29    28    1
   140    24    25    2
   141    28    31    1
   142    33    35   ar
   143    33    32   ar
   144    31    32    1
   145    35    37   ar
   146    32    34   ar
   147    37    36   ar
   148    34    36   ar
