@<TRIPOS>MOLECULE
tmp/1pkgA00.pdb
 165 156 0 0 0
SMALL
GASTEIGER

@<TRIPOS>ATOM
      1  N         17.7020   30.0540   32.3690 N.3    27  LEU27      -0.1231
      2  CA        18.8410   29.4420   33.0470 C.3    27  LEU27       0.1693
      3  C         20.2100   29.8340   32.4510 C.2    27  LEU27       0.2593
      4  O         21.2350   29.8940   33.1490 O.2    27  LEU27      -0.2718
      5  CB        18.6680   27.9290   33.0410 C.3    27  LEU27       0.0284
      6  CG        17.6060   27.4610   34.0250 C.3    27  LEU27       0.0019
      7  CD1       17.2610   26.0190   33.7980 C.3    27  LEU27       0.0001
      8  CD2       18.0700   27.6820   35.4500 C.3    27  LEU27       0.0001
      9  N         20.1900   30.0740   31.1430 N.am   28  GLY28      -0.1942
     10  CA        21.3260   30.5340   30.3700 C.3    28  GLY28       0.2014
     11  C         20.9570   30.6170   28.8970 C.2    28  GLY28       0.2639
     12  O         19.8040   30.3560   28.5050 O.2    28  GLY28      -0.2714
     13  N         21.9460   30.9940   28.0900 N.am   29  ALA29      -0.1963
     14  CA        21.8340   30.9570   26.6450 C.3    29  ALA29       0.1728
     15  C         23.2400   30.9340   26.0780 C.2    29  ALA29       0.2617
     16  O         24.0670   31.7870   26.4000 O.2    29  ALA29      -0.2715
     17  CB        21.0780   32.1690   26.1360 C.3    29  ALA29       0.0334
     18  N         23.5330   29.9610   25.2370 N.am   30  GLY30      -0.1940
     19  CA        24.8220   29.9550   24.5890 C.3    30  GLY30       0.2014
     20  C         24.6830   30.4610   23.1750 C.2    30  GLY30       0.2639
     21  O         23.8610   31.3390   22.9130 O.2    30  GLY30      -0.2714
     22  N         25.4870   29.9040   22.2660 N.am   31  ALA31      -0.1963
     23  CA        25.4550   30.2920   20.8520 C.3    31  ALA31       0.1728
     24  C         24.3340   29.5750   20.1220 C.2    31  ALA31       0.2616
     25  O         23.7950   30.0920   19.1310 O.2    31  ALA31      -0.2715
     26  CB        26.7890   30.0190   20.1710 C.3    31  ALA31       0.0334
     27  N         23.9690   28.4040   20.6300 N.am   32  PHE32      -0.1960
     28  CA        22.9950   27.5740   19.9630 C.3    32  PHE32       0.1771
     29  C         21.5640   27.7530   20.4930 C.2    32  PHE32       0.2620
     30  O         20.6750   28.1850   19.7650 O.2    32  PHE32      -0.2715
     31  CB        23.4860   26.1160   19.9090 C.3    32  PHE32       0.0574
     32  CG        24.7600   25.9620   19.1380 C.ar   32  PHE32      -0.0200
     33  CD1       24.7690   26.0700   17.7490 C.ar   32  PHE32      -0.0042
     34  CD2       25.9670   25.7960   19.7910 C.ar   32  PHE32      -0.0042
     35  CE1       25.9630   25.9860   17.0120 C.ar   32  PHE32      -0.0003
     36  CE2       27.1670   25.7150   19.0620 C.ar   32  PHE32      -0.0003
     37  CZ        27.1530   25.8130   17.6660 C.ar   32  PHE32      -0.0000
     38  N         21.3240   27.4520   21.7530 N.am   33  GLY33      -0.1954
     39  CA        19.9510   27.3920   22.2030 C.3    33  GLY33       0.1869
     40  C         19.6900   28.3600   23.3140 C.2    33  GLY33       0.2309
     41  O         20.6210   29.0220   23.7730 O.2    33  GLY33      -0.2863
     42  N         18.1180   28.0140   27.1850 N.3    35  VAL35      -0.1245
     43  CA        17.6410   27.0900   28.1840 C.3    35  VAL35       0.1561
     44  C         16.8960   27.8530   29.2330 C.2    35  VAL35       0.2260
     45  O         17.3370   28.9200   29.6800 O.2    35  VAL35      -0.2867
     46  CB        18.7550   26.2690   28.8300 C.3    35  VAL35       0.0252
     47  CG1       18.1620   25.3270   29.8610 C.3    35  VAL35       0.0019
     48  CG2       19.4910   25.4710   27.7840 C.3    35  VAL35       0.0019
     49  N         15.0140   21.4470   33.0140 N.3    53  ALA53      -0.1245
     50  CA        15.5630   22.4660   32.1360 C.3    53  ALA53       0.1562
     51  C         15.0220   22.1660   30.7960 C.2    53  ALA53       0.2260
     52  O         15.0690   21.0320   30.3440 O.2    53  ALA53      -0.2867
     53  CB        17.0390   22.4000   32.0970 C.3    53  ALA53       0.0290
     54  N         15.2850   23.1760   26.8250 N.3    55  LYS55      -0.1245
     55  CA        16.1330   23.8720   25.8680 C.3    55  LYS55       0.1561
     56  C         15.4090   23.9850   24.5450 C.2    55  LYS55       0.2260
     57  O         14.7440   23.0430   24.1020 O.2    55  LYS55      -0.2867
     58  CB        17.4680   23.1600   25.7140 C.3    55  LYS55       0.0271
     59  CG        18.4660   23.8450   24.8410 C.3    55  LYS55       0.0035
     60  CD        19.6430   22.9240   24.6420 C.3    55  LYS55       0.0206
     61  CE        20.5580   23.4440   23.5640 C.3    55  LYS55       0.1093
     62  NZ        21.7750   24.0860   24.1310 N.3    55  LYS55      -0.1314
     63  N         21.4420   17.4390   19.0240 N.3    72  GLU72      -0.1245
     64  CA        21.6890   17.0780   20.4180 C.3    72  GLU72       0.1567
     65  C         20.5620   16.3240   21.0890 C.2    72  GLU72       0.2260
     66  O         20.7900   15.5670   22.0280 O.2    72  GLU72      -0.2867
     67  CB        22.1920   18.2540   21.2590 C.3    72  GLU72       0.0388
     68  CG        21.2260   19.3620   21.6330 C.3    72  GLU72       0.1160
     69  CD        21.5970   19.9730   22.9880 C.2    72  GLU72       0.3649
     70  OE1       20.7330   19.9580   23.8930 O.co2  72  GLU72      -0.2457
     71  OE2       22.7500   20.4500   23.1800 O.co2  72  GLU72      -0.2457
     72  N         24.5280   15.1600   30.8880 N.3    86  VAL86      -0.1245
     73  CA        23.2110   15.7180   31.1540 C.3    86  VAL86       0.1561
     74  C         22.1030   14.6950   30.8040 C.2    86  VAL86       0.2260
     75  O         22.0250   14.2040   29.6780 O.2    86  VAL86      -0.2867
     76  CB        23.0740   17.0950   30.4130 C.3    86  VAL86       0.0252
     77  CG1       23.1680   16.9440   28.9230 C.3    86  VAL86       0.0019
     78  CG2       21.8200   17.8130   30.7750 C.3    86  VAL86       0.0019
     79  N         15.5580   18.3410   29.7200 N.3   102  THR102     -0.1203
     80  CA        16.7630   17.8800   30.4080 C.3   102  THR102      0.1994
     81  C         16.6020   17.8820   31.9360 C.2   102  THR102      0.2618
     82  O         15.7920   18.6120   32.4750 O.2   102  THR102     -0.2717
     83  CB        17.8850   18.8350   29.9800 C.3   102  THR102      0.1784
     84  OG1       18.4930   18.3490   28.7690 O.3   102  THR102     -0.2211
     85  CG2       19.0080   18.8730   30.9780 C.3   102  THR102      0.0376
     86  N         17.3610   17.0490   32.6300 N.am  103  GLU103     -0.1965
     87  CA        17.3490   17.0290   34.0840 C.3   103  GLU103      0.1733
     88  C         17.8360   18.3650   34.5840 C.2   103  GLU103      0.2616
     89  O         18.9090   18.8100   34.2230 O.2   103  GLU103     -0.2715
     90  CB        18.2630   15.9380   34.6080 C.3   103  GLU103      0.0429
     91  CG        19.7240   16.1320   34.2220 C.3   103  GLU103      0.1163
     92  CD        20.6920   15.3280   35.0920 C.2   103  GLU103      0.3649
     93  OE1       20.7170   15.5680   36.3380 O.co2 103  GLU103     -0.2457
     94  OE2       21.4340   14.4580   34.5390 O.co2 103  GLU103     -0.2457
     95  N         17.0640   19.0250   35.4190 N.am  104  TYR104     -0.1960
     96  CA        17.5400   20.2790   35.9740 C.3   104  TYR104      0.1771
     97  C         18.7850   20.1350   36.8870 C.2   104  TYR104      0.2619
     98  O         18.7710   19.3920   37.8680 O.2   104  TYR104     -0.2715
     99  CB        16.3920   20.9280   36.7180 C.3   104  TYR104      0.0574
    100  CG        16.7010   22.2300   37.4110 C.ar  104  TYR104     -0.0198
    101  CD1       16.6940   22.3170   38.8080 C.ar  104  TYR104     -0.0009
    102  CD2       16.9480   23.3820   36.6780 C.ar  104  TYR104     -0.0009
    103  CE1       16.9360   23.5080   39.4460 C.ar  104  TYR104      0.0417
    104  CE2       17.2030   24.5740   37.3090 C.ar  104  TYR104      0.0417
    105  CZ        17.1960   24.6300   38.6910 C.ar  104  TYR104      0.1957
    106  OH        17.4540   25.8200   39.2980 O.3   104  TYR104     -0.2866
    107  N         19.8590   20.8410   36.5480 N.am  105  CYS105     -0.1968
    108  CA        21.0010   21.0010   37.4570 C.3   105  CYS105      0.1712
    109  C         20.8550   22.3230   38.1850 C.2   105  CYS105      0.2296
    110  O         20.6630   23.3510   37.5600 O.2   105  CYS105     -0.2864
    111  CB        22.3040   20.9540   36.6910 C.3   105  CYS105      0.0983
    112  SG        22.3450   19.5010   35.6580 S.3   105  CYS105     -0.0798
    113  N         23.8260   25.3640   37.8980 N.3   108  GLY108     -0.1210
    114  CA        24.1300   25.9440   36.6110 C.3   108  GLY108      0.1956
    115  C         25.4860   25.5320   36.1010 C.2   108  GLY108      0.2611
    116  O         26.0140   24.5040   36.4990 O.2   108  GLY108     -0.2717
    117  N         26.0400   26.3460   35.2120 N.am  109  ASP109     -0.1973
    118  CA        27.3170   26.0580   34.5770 C.3   109  ASP109      0.1709
    119  C         28.4700   26.3310   35.5110 C.2   109  ASP109      0.2293
    120  O         28.5230   27.3870   36.1340 O.2   109  ASP109     -0.2864
    121  CB        27.5010   26.8690   33.2870 C.3   109  ASP109      0.1436
    122  CG        27.1150   28.3510   33.4350 C.2   109  ASP109      0.3671
    123  OD1       25.9360   28.6270   33.7770 O.co2 109  ASP109     -0.2456
    124  OD2       27.9010   29.3150   33.1890 O.co2 109  ASP109     -0.2456
    125  N         31.5390   26.5330   30.6470 N.3   159  ARG159     -0.1231
    126  CA        30.1570   26.9620   30.4890 C.3   159  ARG159      0.1694
    127  C         29.2410   25.8210   30.0770 C.2   159  ARG159      0.2592
    128  O         28.0150   25.9500   30.1630 O.2   159  ARG159     -0.2718
    129  CB        30.0490   28.1200   29.4810 C.3   159  ARG159      0.0321
    130  CG        29.9680   27.6680   28.0290 C.3   159  ARG159      0.0489
    131  CD        30.6140   28.5760   27.0270 C.3   159  ARG159      0.2205
    132  NE        31.0190   27.8400   25.8390 N.pl3 159  ARG159     -0.0865
    133  CZ        32.2110   27.9760   25.2780 C.cat 159  ARG159      0.5346
    134  NH1       32.5360   27.2720   24.1940 N.pl3 159  ARG159      0.1354
    135  NH2       33.0910   28.8260   25.8020 N.pl3 159  ARG159      0.1354
    136  N         29.8110   24.7250   29.5940 N.am  160  ASN160     -0.1974
    137  CA        28.9850   23.5990   29.1700 C.3   160  ASN160      0.1688
    138  C         29.0880   22.4140   30.1150 C.2   160  ASN160      0.2292
    139  O         28.7570   21.2670   29.7600 O.2   160  ASN160     -0.2864
    140  CB        29.3060   23.1700   27.7490 C.3   160  ASN160      0.1181
    141  CG        28.9540   24.2130   26.7330 C.2   160  ASN160      0.2629
    142  OD1       27.8770   24.8260   26.7750 O.2   160  ASN160     -0.2716
    143  ND2       29.8590   24.4200   25.7890 N.am  160  ASN160     -0.0877
    144  N         27.5220   21.4830   33.7500 N.3   162  LEU162     -0.1245
    145  CA        26.5380   21.7750   34.7820 C.3   162  LEU162      0.1561
    146  C         26.9210   21.1110   36.0900 C.2   162  LEU162      0.2260
    147  O         27.7650   20.2320   36.1090 O.2   162  LEU162     -0.2867
    148  CB        25.1530   21.3150   34.3370 C.3   162  LEU162      0.0270
    149  CG        24.6960   21.7900   32.9600 C.3   162  LEU162      0.0019
    150  CD1       23.3590   21.1770   32.5560 C.3   162  LEU162      0.0001
    151  CD2       24.6430   23.3160   32.8890 C.3   162  LEU162      0.0001
    152  N         27.0760   19.1300   29.3300 N.3   172  CYS172     -0.1221
    153  CA        25.9380   19.4530   28.4780 C.3   172  CYS172      0.1808
    154  C         26.3850   20.0340   27.1470 C.2   172  CYS172      0.2601
    155  O         27.5350   19.8710   26.7680 O.2   172  CYS172     -0.2717
    156  CB        24.9980   20.4000   29.1910 C.3   172  CYS172      0.0970
    157  SG        25.6830   22.0390   29.4450 S.3   172  CYS172     -0.0800
    158  N         25.4710   20.7020   26.4420 N.am  173  ASP173     -0.1973
    159  CA        25.7050   21.2210   25.0820 C.3   173  ASP173      0.1709
    160  C         26.3410   20.2470   24.1010 C.2   173  ASP173      0.2293
    161  O         27.5510   20.3350   23.8350 O.2   173  ASP173     -0.2864
    162  CB        26.5850   22.4580   25.1270 C.3   173  ASP173      0.1436
    163  CG        26.2560   23.4580   24.0430 C.2   173  ASP173      0.3671
    164  OD1       26.5690   24.6420   24.3000 O.co2 173  ASP173     -0.2456
    165  OD2       25.6870   23.1740   22.9500 O.co2 173  ASP173     -0.2456
@<TRIPOS>BOND
     1    35    37   ar
     2    35    33   ar
     3    37    36   ar
     4    33    32   ar
     5    63    64    1
     6    36    34   ar
     7    25    24    2
     8    32    34   ar
     9    32    31    1
    10    30    29    2
    11    31    28    1
    12    28    29    1
    13    28    27    1
    14    24    27   am
    15    24    23    1
    16    26    23    1
    17    64    65    1
    18    64    67    1
    19    29    38   am
    20    23    22    1
    21    65    66    2
    22    67    68    1
    23    68    69    1
    24    38    39    1
    25    39    40    1
    26    22    20   am
    27    21    20    2
    28   165   163   ar
    29    69    71   ar
    30    69    70   ar
    31    20    19    1
    32    40    41    2
    33    61    62    1
    34    61    60    1
    35   161   160    2
    36   163   164   ar
    37   163   162    1
    38   160   159    1
    39    57    56    2
    40   134   133    1
    41    56    55    1
    42    19    18    1
    43    60    59    1
    44    59    58    1
    45   159   162    1
    46   159   158    1
    47    18    15   am
    48   133   135    1
    49   133   132    2
    50    58    55    1
    51   143   141   am
    52   132   131    1
    53    55    54    1
    54    15    16    2
    55    15    14    1
    56    17    14    1
    57   158   154   am
    58    14    13    1
    59   141   142    2
    60   141   140    1
    61   155   154    2
    62   131   130    1
    63   154   153    1
    64    42    43    1
    65   140   137    1
    66    48    46    1
    67   130   129    1
    68    13    11   am
    69    43    46    1
    70    43    44    1
    71   153   156    1
    72   153   152    1
    73    12    11    2
    74    84    83    1
    75    46    47    1
    76    11    10    1
    77    77    76    1
    78   137   136    1
    79   137   138    1
    80   156   157    1
    81    44    45    2
    82   129   126    1
    83   136   127   am
    84    75    74    2
    85    79    80    1
    86   139   138    2
    87    83    80    1
    88    83    85    1
    89   127   128    2
    90   127   126    1
    91    52    51    2
    92    10     9    1
    93    80    81    1
    94    76    78    1
    95    76    73    1
    96   126   125    1
    97    51    50    1
    98    74    73    1
    99    72    73    1
   100     9     3   am
   101    81    82    2
   102    81    86   am
   103    53    50    1
   104    50    49    1
   105     1     2    1
   106     3     2    1
   107     3     4    2
   108   150   149    1
   109    86    87    1
   110   151   149    1
   111   149   148    1
   112     5     2    1
   113     5     6    1
   114   124   122   ar
   115   121   122    1
   116   121   118    1
   117   122   123   ar
   118   144   145    1
   119     7     6    1
   120     6     8    1
   121    87    88    1
   122    87    90    1
   123    91    90    1
   124    91    92    1
   125    89    88    2
   126   148   145    1
   127    94    92   ar
   128   118   117    1
   129   118   119    1
   130    88    95   am
   131   145   146    1
   132    92    93   ar
   133   117   115   am
   134    95    96    1
   135   119   120    2
   136   112   111    1
   137    96    99    1
   138    96    97    1
   139   146   147    2
   140   115   116    2
   141   115   114    1
   142   107    97   am
   143   107   108    1
   144   114   113    1
   145   102   104   ar
   146   102   100   ar
   147   111   108    1
   148    99   100    1
   149    97    98    2
   150   104   105   ar
   151   100   101   ar
   152   108   109    1
   153   110   109    2
   154   105   106    1
   155   105   103   ar
   156   101   103   ar
