@<TRIPOS>MOLECULE
tmp/1pkwA01.pdb
 104 96 0 0 0
SMALL
GASTEIGER

@<TRIPOS>ATOM
      1  N         84.6270   22.8270    4.7700 N.3    17  SER17      -0.1217
      2  CA        83.9170   21.7920    4.0140 C.3    17  SER17       0.1889
      3  C         83.2960   22.3640    2.7620 C.2    17  SER17       0.2288
      4  O         83.2200   21.6800    1.7350 O.2    17  SER17      -0.2866
      5  CB        82.9040   21.0270    4.9090 C.3    17  SER17       0.2089
      6  OG        81.9040   21.8780    5.3680 O.3    17  SER17      -0.2183
      7  N         76.0360   26.3050    7.7340 N.3    67  THR67      -0.1203
      8  CA        76.8520   25.3930    6.9500 C.3    67  THR67       0.1994
      9  C         76.0350   24.4030    6.1140 C.2    67  THR67       0.2617
     10  O         76.3070   24.2230    4.9410 O.2    67  THR67      -0.2717
     11  CB        77.8270   24.6340    7.9040 C.3    67  THR67       0.1784
     12  OG1       78.6550   25.5910    8.5870 O.3    67  THR67      -0.2211
     13  CG2       78.8370   23.8380    7.1000 C.3    67  THR67       0.0376
     14  N         75.0490   23.7480    6.7170 N.am   68  ARG68      -0.1979
     15  CA        74.2840   22.7320    5.9950 C.3    68  ARG68       0.1597
     16  C         73.4040   23.3290    4.8960 C.2    68  ARG68       0.2287
     17  O         73.2000   22.6990    3.8880 O.2    68  ARG68      -0.2864
     18  CB        73.4330   21.8970    6.9570 C.3    68  ARG68       0.0334
     19  CG        74.2280   21.0340    7.9180 C.3    68  ARG68       0.0492
     20  CD        73.3080   20.1910    8.7670 C.3    68  ARG68       0.2205
     21  NE        73.9810   19.1940    9.5670 N.pl3  68  ARG68      -0.0865
     22  CZ        74.6400   19.4520   10.6710 C.cat  68  ARG68       0.5346
     23  NH1       74.7420   20.7040   11.1370 N.pl3  68  ARG68       0.1354
     24  NH2       75.2100   18.4460   11.3200 N.pl3  68  ARG68       0.1354
     25  N         75.9360   24.0300    2.0570 N.3    71  LEU71      -0.1231
     26  CA        76.4200   22.8060    1.4480 C.3    71  LEU71       0.1693
     27  C         75.2940   22.0900    0.6690 C.2    71  LEU71       0.2592
     28  O         75.5380   21.5250   -0.3890 O.2    71  LEU71      -0.2718
     29  CB        77.0000   21.8480    2.5010 C.3    71  LEU71       0.0284
     30  CG        78.3000   22.2520    3.2060 C.3    71  LEU71       0.0019
     31  CD1       78.5810   21.2890    4.3280 C.3    71  LEU71       0.0001
     32  CD2       79.4560   22.3340    2.2100 C.3    71  LEU71       0.0001
     33  N         74.0850   22.0960    1.2120 N.am   72  ASN72      -0.1974
     34  CA        72.9440   21.4370    0.5730 C.3    72  ASN72       0.1688
     35  C         72.6730   22.1500   -0.7550 C.2    72  ASN72       0.2292
     36  O         72.4200   21.5040   -1.7580 O.2    72  ASN72      -0.2864
     37  CB        71.7000   21.5220    1.4400 C.3    72  ASN72       0.1181
     38  CG        71.6920   20.5520    2.6120 C.2    72  ASN72       0.2629
     39  OD1       72.6000   19.7220    2.8190 O.2    72  ASN72      -0.2716
     40  ND2       70.5960   20.6290    3.3940 N.am   72  ASN72      -0.0877
     41  N         76.5260   11.5630    5.4500 N.3    95  ILE95      -0.1231
     42  CA        77.2550   12.7930    5.7250 C.3    95  ILE95       0.1692
     43  C         76.9030   13.3250    7.1000 C.2    95  ILE95       0.2591
     44  O         77.6750   14.0560    7.6590 O.2    95  ILE95      -0.2718
     45  CB        77.0480   13.8670    4.6460 C.3    95  ILE95       0.0266
     46  CG1       75.6130   14.3820    4.6860 C.3    95  ILE95       0.0019
     47  CG2       77.4610   13.2860    3.2600 C.3    95  ILE95       0.0020
     48  CD1       75.3310   15.3840    3.6100 C.3    95  ILE95       0.0001
     49  N         75.7590   12.9540    7.6460 N.am   96  GLU96      -0.1979
     50  CA        75.4450   13.3830    9.0050 C.3    96  GLU96       0.1602
     51  C         76.2960   12.6160   10.0210 C.2    96  GLU96       0.2287
     52  O         76.6280   13.1320   11.0950 O.2    96  GLU96      -0.2864
     53  CB        73.9560   13.2650    9.2940 C.3    96  GLU96       0.0415
     54  CG        73.1450   14.3770    8.6540 C.3    96  GLU96       0.1163
     55  CD        73.5170   15.7340    9.2220 C.2    96  GLU96       0.3649
     56  OE1       73.6190   15.8570   10.4660 O.co2  96  GLU96      -0.2457
     57  OE2       73.7250   16.6690    8.4340 O.co2  96  GLU96      -0.2457
     58  N         79.4480   11.6620    9.1590 N.3    98  ILE98      -0.1231
     59  CA        80.6460   12.4720    8.9690 C.3    98  ILE98       0.1692
     60  C         80.6090   13.7760    9.7650 C.2    98  ILE98       0.2591
     61  O         81.6020   14.1770   10.3620 O.2    98  ILE98      -0.2718
     62  CB        80.8680   12.7800    7.4570 C.3    98  ILE98       0.0266
     63  CG1       81.1390   11.4740    6.7110 C.3    98  ILE98       0.0019
     64  CG2       81.9880   13.8030    7.2700 C.3    98  ILE98       0.0020
     65  CD1       80.9660   11.5320    5.1870 C.3    98  ILE98       0.0001
     66  N         79.4680   14.4540    9.7980 N.am   99  ALA99      -0.1980
     67  CA        79.3690   15.7260   10.5330 C.3    99  ALA99       0.1597
     68  C         79.5510   15.5080   12.0410 C.2    99  ALA99       0.2287
     69  O         80.2270   16.2980   12.7080 O.2    99  ALA99      -0.2864
     70  CB        78.0000   16.4070   10.2780 C.3    99  ALA99       0.0319
     71  N         83.1800   14.8130   12.7030 N.3   102  GLY102     -0.1225
     72  CA        83.8830   16.0200   12.3420 C.3   102  GLY102      0.1811
     73  C         83.7480   17.0520   13.4240 C.2   102  GLY102      0.2280
     74  O         84.6920   17.7420   13.7240 O.2   102  GLY102     -0.2866
     75  N         78.7410   14.4940   -3.0040 N.3   153  ARG153     -0.1245
     76  CA        79.2290   15.1800   -1.8290 C.3   153  ARG153      0.1563
     77  C         79.6920   14.2810   -0.7150 C.2   153  ARG153      0.2260
     78  O         80.5740   14.6560    0.0720 O.2   153  ARG153     -0.2867
     79  CB        78.1730   16.1120   -1.2740 C.3   153  ARG153      0.0307
     80  CG        76.9530   15.4580   -0.6860 C.3   153  ARG153      0.0489
     81  CD        75.9200   16.4570   -0.2650 C.3   153  ARG153      0.2205
     82  NE        76.3910   17.2780    0.8460 N.pl3 153  ARG153     -0.0865
     83  CZ        75.6130   18.0220    1.6110 C.cat 153  ARG153      0.5346
     84  NH1       74.3080   18.1210    1.3660 N.pl3 153  ARG153      0.1354
     85  NH2       76.1360   18.6900    2.6120 N.pl3 153  ARG153      0.1354
     86  N         83.1270   14.9210    1.3460 N.3   157  HIS157     -0.1241
     87  CA        83.1040   15.1910    2.7880 C.3   157  HIS157      0.1621
     88  C         83.8510   14.1130    3.5400 C.2   157  HIS157      0.2264
     89  O         84.5340   14.3840    4.5310 O.2   157  HIS157     -0.2867
     90  CB        81.6780   15.2370    3.3510 C.3   157  HIS157      0.0745
     91  CG        80.8250   16.2990    2.7650 C.ar  157  HIS157      0.0817
     92  ND1       81.3210   17.5340    2.4220 N.ar  157  HIS157     -0.2268
     93  CD2       79.5000   16.3310    2.4930 C.ar  157  HIS157      0.1154
     94  CE1       80.3380   18.2800    1.9570 C.ar  157  HIS157      0.1986
     95  NE2       79.2220   17.5750    1.9900 N.ar  157  HIS157     -0.2212
     96  N         87.7920   14.5400    2.8820 N.3   160  GLU160     -0.1245
     97  CA        88.2080   15.6280    3.7480 C.3   160  GLU160      0.1567
     98  C         88.4310   15.1840    5.1980 C.2   160  GLU160      0.2260
     99  O         89.4950   15.4260    5.7670 O.2   160  GLU160     -0.2867
    100  CB        87.1660   16.7480    3.7110 C.3   160  GLU160      0.0388
    101  CG        87.5830   17.9710    4.5190 C.3   160  GLU160      0.1160
    102  CD        86.4980   19.0150    4.7350 C.2   160  GLU160      0.3649
    103  OE1       85.3250   18.7830    4.3560 O.co2 160  GLU160     -0.2457
    104  OE2       86.8240   20.0860    5.3270 O.co2 160  GLU160     -0.2457
@<TRIPOS>BOND
     1    75    76    1
     2    76    79    1
     3    76    77    1
     4    36    35    2
     5    79    80    1
     6    35    34    1
     7    77    78    2
     8    80    81    1
     9    28    27    2
    10    81    82    1
    11    34    33    1
    12    34    37    1
    13    27    33   am
    14    27    26    1
    15    82    83    2
    16    86    87    1
    17    84    83    1
    18    37    38    1
    19    26    25    1
    20    26    29    1
    21    83    85    1
    22     4     3    2
    23    94    95   ar
    24    94    92   ar
    25    95    93   ar
    26    32    30    1
    27    92    91   ar
    28    93    91   ar
    29    29    30    1
    30    38    39    2
    31    38    40   am
    32     3     2    1
    33    91    90    1
    34    87    90    1
    35    87    88    1
    36    96    97    1
    37    30    31    1
    38    47    45    1
    39    88    89    2
    40    48    46    1
    41   100    97    1
    42   100   101    1
    43    97    98    1
    44    17    16    2
    45     2     1    1
    46     2     5    1
    47   103   102   ar
    48   101   102    1
    49    45    46    1
    50    45    42    1
    51   102   104   ar
    52    16    15    1
    53     5     6    1
    54    10     9    2
    55    65    63    1
    56    98    99    2
    57    41    42    1
    58    42    43    1
    59    15    14    1
    60    15    18    1
    61     9    14   am
    62     9     8    1
    63    63    62    1
    64     8     7    1
    65     8    11    1
    66    18    19    1
    67    13    11    1
    68    43    49   am
    69    43    44    2
    70    64    62    1
    71    62    59    1
    72    49    50    1
    73    11    12    1
    74    19    20    1
    75    57    55   ar
    76    54    55    1
    77    54    53    1
    78    20    21    1
    79    59    58    1
    80    59    60    1
    81    50    53    1
    82    50    51    1
    83    55    56   ar
    84    21    22    2
    85    60    66   am
    86    60    61    2
    87    66    67    1
    88    51    52    2
    89    70    67    1
    90    67    68    1
    91    22    23    1
    92    22    24    1
    93    68    69    2
    94    72    71    1
    95    72    73    1
    96    73    74    2
