@<TRIPOS>MOLECULE
tmp/1pl1A00.pdb
 189 182 0 0 0
SMALL
GASTEIGER

@<TRIPOS>ATOM
      1  N         84.6050   34.6130    6.1180 N.3     8  TYR8       -0.1227
      2  CA        85.0500   33.8810    7.2770 C.3     8  TYR8        0.1736
      3  C         86.4140   34.4580    7.6670 C.2     8  TYR8        0.2595
      4  O         86.9290   35.3360    6.9720 O.2     8  TYR8       -0.2718
      5  CB        85.1930   32.3820    6.9750 C.3     8  TYR8        0.0548
      6  CG        85.1850   31.4960    8.2070 C.ar    8  TYR8       -0.0200
      7  CD1       84.1180   31.5030    9.0940 C.ar    8  TYR8       -0.0009
      8  CD2       86.2580   30.6390    8.4850 C.ar    8  TYR8       -0.0009
      9  CE1       84.1050   30.7210   10.2320 C.ar    8  TYR8        0.0417
     10  CE2       86.2400   29.8270    9.5660 C.ar    8  TYR8        0.0417
     11  CZ        85.1660   29.8530   10.4650 C.ar    8  TYR8        0.1957
     12  OH        85.1410   29.0950   11.5890 O.3     8  TYR8       -0.2866
     13  N         86.9900   33.9870    8.7520 N.am    9  PHE9       -0.1976
     14  CA        88.4030   34.3450    9.0250 C.3     9  PHE9        0.1639
     15  C         89.3380   33.4410    8.2610 C.2     9  PHE9        0.2290
     16  O         88.8800   32.4780    7.6140 O.2     9  PHE9       -0.2864
     17  CB        88.6780   34.4760   10.5270 C.3     9  PHE9        0.0560
     18  CG        88.9020   33.2090   11.3020 C.ar    9  PHE9       -0.0200
     19  CD1       90.1130   33.0440   12.0100 C.ar    9  PHE9       -0.0042
     20  CD2       87.9280   32.2260   11.4510 C.ar    9  PHE9       -0.0042
     21  CE1       90.3550   31.9450   12.7780 C.ar    9  PHE9       -0.0003
     22  CE2       88.1770   31.0990   12.2200 C.ar    9  PHE9       -0.0003
     23  CZ        89.3950   30.9640   12.9130 C.ar    9  PHE9       -0.0000
     24  N         88.3590   26.2380   10.2470 N.3    13  GLY13      -0.1210
     25  CA        87.1510   26.3000   11.0340 C.3    13  GLY13       0.1956
     26  C         85.9330   25.6840   10.3750 C.2    13  GLY13       0.2611
     27  O         85.9720   24.5660    9.8290 O.2    13  GLY13      -0.2717
     28  N         84.8490   26.4470   10.4120 N.am   14  ARG14      -0.1979
     29  CA        83.5690   26.0060    9.8600 C.3    14  ARG14       0.1597
     30  C         83.3600   26.2360    8.3550 C.2    14  ARG14       0.2287
     31  O         82.3320   25.8540    7.8340 O.2    14  ARG14      -0.2864
     32  CB        82.4460   26.6930   10.6330 C.3    14  ARG14       0.0334
     33  CG        82.4030   26.2800   12.1060 C.3    14  ARG14       0.0492
     34  CD        81.0910   26.5750   12.8150 C.3    14  ARG14       0.2205
     35  NE        81.1180   26.0580   14.1930 N.pl3  14  ARG14      -0.0865
     36  CZ        80.9580   24.7840   14.5390 C.cat  14  ARG14       0.5346
     37  NH1       80.7480   23.8520   13.6570 N.pl3  14  ARG14       0.1354
     38  NH2       81.0250   24.4350   15.8070 N.pl3  14  ARG14       0.1354
     39  N         83.5020   41.6770   11.6640 N.3    40  LEU40      -0.1245
     40  CA        82.3290   40.8200   11.9030 C.3    40  LEU40       0.1561
     41  C         81.1020   41.6780   12.2340 C.2    40  LEU40       0.2260
     42  O         79.9920   41.4500   11.7450 O.2    40  LEU40      -0.2867
     43  CB        82.5860   39.7990   12.9970 C.3    40  LEU40       0.0270
     44  CG        81.4520   38.8310   13.3730 C.3    40  LEU40       0.0019
     45  CD1       80.9310   38.1590   12.1430 C.3    40  LEU40       0.0001
     46  CD2       81.9060   37.8050   14.3760 C.3    40  LEU40       0.0001
     47  N         77.3350   41.9820   10.5030 N.3    44  ARG44      -0.1245
     48  CA        76.1320   41.8410   11.3450 C.3    44  ARG44       0.1563
     49  C         75.2480   43.0550   11.2190 C.2    44  ARG44       0.2260
     50  O         74.0670   42.9330   10.9210 O.2    44  ARG44      -0.2867
     51  CB        76.4660   41.6740   12.8120 C.3    44  ARG44       0.0307
     52  CG        77.1390   40.3920   13.1550 C.3    44  ARG44       0.0489
     53  CD        77.7370   40.4790   14.5660 C.3    44  ARG44       0.2205
     54  NE        78.0980   39.1750   15.0620 N.pl3  44  ARG44      -0.0865
     55  CZ        78.9050   38.9480   16.0760 C.cat  44  ARG44       0.5346
     56  NH1       79.5590   39.9480   16.6630 N.pl3  44  ARG44       0.1354
     57  NH2       79.1060   37.7090   16.4750 N.pl3  44  ARG44       0.1354
     58  N         73.7010   36.3880   12.9530 N.3    52  GLN52      -0.1231
     59  CA        74.8260   37.1900   13.4680 C.3    52  GLN52       0.1698
     60  C         76.1300   36.3810   13.5120 C.2    52  GLN52       0.2592
     61  O         77.0700   36.7430   14.2380 O.2    52  GLN52      -0.2718
     62  CB        74.4780   37.8390   14.8120 C.3    52  GLN52       0.0381
     63  CG        73.1050   38.4950   14.8440 C.3    52  GLN52       0.0905
     64  CD        72.7550   39.3830   13.6530 C.2    52  GLN52       0.2608
     65  OE1       73.6250   39.9660   12.9650 O.2    52  GLN52      -0.2717
     66  NE2       71.4550   39.4670   13.3750 N.am   52  GLN52      -0.0878
     67  N         76.1780   35.3320   12.6860 N.am   53  GLN53      -0.1966
     68  CA        77.3020   34.4150   12.6560 C.3    53  GLN53       0.1733
     69  C         77.8120   34.2180   11.2390 C.2    53  GLN53       0.2616
     70  O         77.0980   34.3820   10.2900 O.2    53  GLN53      -0.2715
     71  CB        76.9010   33.0230   13.1520 C.3    53  GLN53       0.0408
     72  CG        76.3960   32.9870   14.5750 C.3    53  GLN53       0.0908
     73  CD        75.8070   31.6330   14.9970 C.2    53  GLN53       0.2608
     74  OE1       76.1620   31.0860   16.0670 O.2    53  GLN53      -0.2717
     75  NE2       74.9310   31.0930   14.1770 N.am   53  GLN53      -0.0878
     76  N         79.0730   33.8050   11.1390 N.am   54  VAL54      -0.1964
     77  CA        79.6270   33.2520    9.9030 C.3    54  VAL54       0.1712
     78  C         79.9860   31.7900   10.1490 C.2    54  VAL54       0.2458
     79  O         80.0270   31.3750   11.3130 O.2    54  VAL54      -0.2730
     80  CB        80.8440   34.0590    9.4250 C.3    54  VAL54       0.0289
     81  CG1       80.4060   35.4070    8.8880 C.3    54  VAL54       0.0023
     82  CG2       81.8300   34.2590   10.5100 C.3    54  VAL54       0.0023
     83  N         80.2510   30.9630    9.1250 N.am   55  PRO55      -0.2727
     84  CA        80.3180   31.2940    7.6890 C.3    55  PRO55       0.1402
     85  C         79.1180   31.9790    7.0660 C.2    55  PRO55       0.2269
     86  O         77.9760   31.7230    7.4440 O.2    55  PRO55      -0.2865
     87  CB        80.4420   29.9260    7.0280 C.3    55  PRO55       0.0296
     88  CG        81.0250   29.0420    8.0770 C.3    55  PRO55       0.0237
     89  CD        80.5980   29.5670    9.3960 C.3    55  PRO55       0.0939
     90  N         74.7290   29.2970    7.8290 N.3    66  GLN66      -0.1231
     91  CA        74.6290   27.9310    8.2790 C.3    66  GLN66       0.1698
     92  C         75.3210   26.9550    7.3080 C.2    66  GLN66       0.2593
     93  O         74.8720   26.7560    6.1690 O.2    66  GLN66      -0.2718
     94  CB        73.1790   27.4800    8.5310 C.3    66  GLN66       0.0381
     95  CG        72.4790   28.2920    9.6680 C.3    66  GLN66       0.0905
     96  CD        72.9120   27.8100   11.0440 C.2    66  GLN66       0.2608
     97  OE1       73.6270   26.8070   11.1890 O.2    66  GLN66      -0.2717
     98  NE2       72.4810   28.5170   12.0460 N.am   66  GLN66      -0.0878
     99  N         76.3610   26.2820    7.7930 N.am   67  THR67      -0.1939
    100  CA        77.1640   25.4320    6.9290 C.3    67  THR67       0.2028
    101  C         76.2860   24.4500    6.1490 C.2    67  THR67       0.2642
    102  O         76.5170   24.2300    4.9830 O.2    67  THR67      -0.2714
    103  CB        78.2020   24.6910    7.8090 C.3    67  THR67       0.1808
    104  OG1       79.1630   25.6520    8.3210 O.3    67  THR67      -0.2208
    105  CG2       79.0170   23.6350    7.0390 C.3    67  THR67       0.0379
    106  N         75.3200   23.8170    6.7940 N.am   68  ARG68      -0.1977
    107  CA        74.5550   22.7800    6.0720 C.3    68  ARG68       0.1597
    108  C         73.7000   23.3770    4.9760 C.2    68  ARG68       0.2287
    109  O         73.4850   22.7860    3.9390 O.2    68  ARG68      -0.2864
    110  CB        73.6850   22.0210    7.0610 C.3    68  ARG68       0.0334
    111  CG        74.4660   21.1610    7.9910 C.3    68  ARG68       0.0492
    112  CD        73.5580   20.2960    8.7840 C.3    68  ARG68       0.2205
    113  NE        74.2410   19.3350    9.6340 N.pl3  68  ARG68      -0.0865
    114  CZ        74.8890   19.6580   10.7470 C.cat  68  ARG68       0.5346
    115  NH1       74.9760   20.9350   11.1690 N.pl3  68  ARG68       0.1354
    116  NH2       75.4740   18.6960   11.4460 N.pl3  68  ARG68       0.1354
    117  N         87.1510   19.1700   15.2050 N.3   106  LEU106     -0.1231
    118  CA        87.1540   20.6430   15.1830 C.3   106  LEU106      0.1693
    119  C         87.2560   21.2270   16.5750 C.2   106  LEU106      0.2591
    120  O         88.0900   22.1290   16.8260 O.2   106  LEU106     -0.2718
    121  CB        85.8830   21.1540   14.5050 C.3   106  LEU106      0.0284
    122  CG        85.6370   22.6740   14.4200 C.3   106  LEU106      0.0019
    123  CD1       86.6800   23.3850   13.5650 C.3   106  LEU106      0.0001
    124  CD2       84.2340   22.9290   13.8690 C.3   106  LEU106      0.0001
    125  N         86.5010   20.6640   17.5270 N.am  107  LEU107     -0.1980
    126  CA        86.3860   21.2970   18.8420 C.3   107  LEU107      0.1596
    127  C         87.4460   20.8610   19.8630 C.2   107  LEU107      0.2287
    128  O         87.5370   21.4620   20.9330 O.2   107  LEU107     -0.2864
    129  CB        84.9580   21.1670   19.4300 C.3   107  LEU107      0.0297
    130  CG        83.8500   21.7920   18.5920 C.3   107  LEU107      0.0022
    131  CD1       82.4420   21.5150   19.1510 C.3   107  LEU107      0.0001
    132  CD2       84.1080   23.2720   18.3350 C.3   107  LEU107      0.0001
    133  N         90.7460   21.4240   20.3080 N.2   109  PRO109     -0.2571
    134  CA        91.5850   22.4710   20.9010 C.3   109  PRO109      0.2026
    135  C         90.8090   23.4010   21.8130 C.2   109  PRO109      0.2683
    136  O         91.4420   24.1220   22.5760 O.2   109  PRO109     -0.2709
    137  CB        92.1380   23.2640   19.7040 C.2   109  PRO109      0.0085
    138  CG        91.5960   22.6440   18.4860 C.2   109  PRO109      0.0180
    139  CD        90.6020   21.6010   18.8500 C.2   109  PRO109      0.0938
    140  N         89.4880   23.4240   21.7430 N.am  110  VAL110     -0.1973
    141  CA        88.7150   24.2800   22.6320 C.3   110  VAL110      0.1596
    142  C         88.2440   23.5670   23.9050 C.2   110  VAL110      0.2287
    143  O         87.7090   24.2210   24.8000 O.2   110  VAL110     -0.2864
    144  CB        87.5800   24.9850   21.8440 C.3   110  VAL110      0.0276
    145  CG1       86.4410   25.5160   22.7480 C.3   110  VAL110      0.0022
    146  CG2       88.1920   26.1230   21.0260 C.3   110  VAL110      0.0022
    147  N         95.0210   24.7150   12.1710 N.3   206  MET206     -0.1245
    148  CA        94.9350   25.9060   12.9990 C.3   206  MET206      0.1570
    149  C         95.9450   25.7560   14.1370 C.2   206  MET206      0.2261
    150  O         95.8380   24.8100   14.9040 O.2   206  MET206     -0.2867
    151  CB        93.5120   25.9950   13.5840 C.3   206  MET206      0.0387
    152  CG        93.2640   27.2880   14.2950 C.3   206  MET206      0.0595
    153  SD        91.5690   27.4050   14.9250 S.3   206  MET206     -0.1393
    154  CE        91.5320   25.9480   16.0790 C.3   206  MET206      0.0692
    155  N         94.1460   30.2660   16.6080 N.3   211  LEU211     -0.1245
    156  CA        93.0480   30.0010   17.5350 C.3   211  LEU211      0.1561
    157  C         92.7680   31.2570   18.3540 C.2   211  LEU211      0.2260
    158  O         91.6180   31.6100   18.6400 O.2   211  LEU211     -0.2867
    159  CB        93.3610   28.8260   18.4580 C.3   211  LEU211      0.0270
    160  CG        92.3120   28.5000   19.5420 C.3   211  LEU211      0.0019
    161  CD1       90.8650   28.5710   19.0510 C.3   211  LEU211      0.0001
    162  CD2       92.5970   27.1020   20.1180 C.3   211  LEU211      0.0001
    163  N         90.8520   33.6950   16.4040 N.3   214  ALA214     -0.1245
    164  CA        89.4480   33.3030   16.4730 C.3   214  ALA214      0.1562
    165  C         88.8150   33.8350   17.7750 C.2   214  ALA214      0.2260
    166  O         87.6830   34.3200   17.7820 O.2   214  ALA214     -0.2867
    167  CB        89.3140   31.7950   16.4030 C.3   214  ALA214      0.0290
    168  N         85.6460   36.3670   17.3890 N.3   218  PHE218     -0.1241
    169  CA        84.3400   35.8290   17.7680 C.3   218  PHE218      0.1605
    170  C         84.0170   35.9410   19.2500 C.2   218  PHE218      0.2264
    171  O         82.9170   35.5560   19.6620 O.2   218  PHE218     -0.2867
    172  CB        84.2080   34.3670   17.3240 C.3   218  PHE218      0.0534
    173  CG        84.4010   34.1880   15.8590 C.ar  218  PHE218     -0.0203
    174  CD1       83.4850   34.7060   14.9570 C.ar  218  PHE218     -0.0042
    175  CD2       85.5260   33.5250   15.3640 C.ar  218  PHE218     -0.0042
    176  CE1       83.6760   34.5530   13.5610 C.ar  218  PHE218     -0.0003
    177  CE2       85.7130   33.3720   14.0010 C.ar  218  PHE218     -0.0003
    178  CZ        84.7910   33.8920   13.0950 C.ar  218  PHE218     -0.0000
    179  N         85.2300   34.4620   22.2050 N.3   220  PHE220     -0.1241
    180  CA        85.0900   33.2900   23.0820 C.3   220  PHE220      0.1605
    181  C         86.4190   32.9630   23.7740 C.2   220  PHE220      0.2264
    182  O         87.4130   33.6930   23.6510 O.2   220  PHE220     -0.2867
    183  CB        84.5060   32.0530   22.3480 C.3   220  PHE220      0.0534
    184  CG        85.3980   31.4770   21.2520 C.ar  220  PHE220     -0.0203
    185  CD1       86.3870   30.5380   21.5480 C.ar  220  PHE220     -0.0042
    186  CD2       85.2030   31.8320   19.9210 C.ar  220  PHE220     -0.0042
    187  CE1       87.1970   29.9950   20.5350 C.ar  220  PHE220     -0.0003
    188  CE2       86.0080   31.2850   18.9030 C.ar  220  PHE220     -0.0003
    189  CZ        87.0110   30.3770   19.2200 C.ar  220  PHE220     -0.0000
@<TRIPOS>BOND
     1   109   108    2
     2   108   107    1
     3   102   101    2
     4   107   106    1
     5   107   110    1
     6     1     2    1
     7   101   106   am
     8   101   100    1
     9    93    92    2
    10   100    99    1
    11   100   103    1
    12     4     3    2
    13     5     2    1
    14     5     6    1
    15    87    84    1
    16    87    88    1
    17   105   103    1
    18   110   111    1
    19    85    86    2
    20    85    84    1
    21     2     3    1
    22    92    99   am
    23    92    91    1
    24    16    15    2
    25     3    13   am
    26    84    83    1
    27   103   104    1
    28    90    91    1
    29    31    30    2
    30   111   112    1
    31    88    89    1
    32     6     8   ar
    33     6     7   ar
    34    15    14    1
    35    91    94    1
    36    30    29    1
    37     8    10   ar
    38    94    95    1
    39    13    14    1
    40   112   113    1
    41    81    80    1
    42    14    17    1
    43     7     9   ar
    44    83    89    1
    45    83    78   am
    46    80    77    1
    47    80    82    1
    48    10    11   ar
    49   113   114    2
    50    95    96    1
    51    27    26    2
    52    29    28    1
    53    29    32    1
    54    77    78    1
    55    77    76    1
    56    78    79    2
    57     9    11   ar
    58    24    25    1
    59    70    69    2
    60    26    28   am
    61    26    25    1
    62    11    12    1
    63    47    48    1
    64    17    18    1
    65    32    33    1
    66   114   115    1
    67   114   116    1
    68    50    49    2
    69    96    97    2
    70    96    98   am
    71    76    69   am
    72    49    48    1
    73    69    68    1
    74    18    20   ar
    75    18    19   ar
    76    48    51    1
    77    20    22   ar
    78    39    40    1
    79    42    41    2
    80    40    41    1
    81    40    43    1
    82    19    21   ar
    83    33    34    1
    84    45    44    1
    85   147   148    1
    86    22    23   ar
    87    68    67    1
    88    68    71    1
    89    67    60   am
    90    21    23   ar
    91    51    52    1
    92    34    35    1
    93    58    59    1
    94    65    64    2
    95    43    44    1
    96   148   151    1
    97   148   149    1
    98   178   176   ar
    99   178   177   ar
   100    71    72    1
   101    52    53    1
   102    44    46    1
   103    66    64   am
   104    59    60    1
   105    59    62    1
   106    60    61    2
   107   176   174   ar
   108   123   122    1
   109   151   152    1
   110    64    63    1
   111    37    36    1
   112   124   122    1
   113   177   175   ar
   114   149   150    2
   115    75    73   am
   116    35    36    2
   117   152   153    1
   118   122   121    1
   119   121   118    1
   120    36    38    1
   121    53    54    1
   122    72    73    1
   123    62    63    1
   124   153   154    1
   125   174   173   ar
   126    73    74    2
   127    54    55    2
   128   118   117    1
   129   118   119    1
   130   175   173   ar
   131   173   172    1
   132    55    57    1
   133    55    56    1
   134   167   164    1
   135   163   164    1
   136   164   165    1
   137   119   120    2
   138   119   125   am
   139   155   156    1
   140   172   169    1
   141   168   169    1
   142   125   126    1
   143   156   157    1
   144   156   159    1
   145   169   170    1
   146   165   166    2
   147   132   130    1
   148   157   158    2
   149   159   160    1
   150   138   139    1
   151   138   137    2
   152   130   131    1
   153   130   129    1
   154   126   129    1
   155   126   127    1
   156   139   133    2
   157   188   189   ar
   158   188   186   ar
   159   161   160    1
   160   189   187   ar
   161   170   171    2
   162   160   162    1
   163   137   134    1
   164   127   128    2
   165   186   184   ar
   166   133   134    1
   167   187   185   ar
   168   134   135    1
   169   146   144    1
   170   184   185   ar
   171   184   183    1
   172   140   135   am
   173   140   141    1
   174   135   136    2
   175   144   141    1
   176   144   145    1
   177   179   180    1
   178   183   180    1
   179   141   142    1
   180   180   181    1
   181   182   181    2
   182   142   143    2
