@<TRIPOS>MOLECULE
tmp/1pl3B00.pdb
 83 78 0 0 0
SMALL
GASTEIGER

@<TRIPOS>ATOM
      1  N         17.6990   31.9220   25.2660 N.3     8  PRO8       -0.2102
      2  CA        17.3660   30.5520   24.8490 C.3     8  PRO8        0.1504
      3  C         16.1150   29.9700   25.5100 C.2     8  PRO8        0.2576
      4  O         15.4400   29.2070   24.8480 O.2     8  PRO8       -0.2718
      5  CB        18.6140   29.7390   25.2130 C.3     8  PRO8        0.0282
      6  CG        19.3970   30.5720   26.1970 C.3     8  PRO8        0.0208
      7  CD        18.9910   32.0010   25.9750 C.3     8  PRO8        0.0893
      8  N         15.7690   30.3480   26.7380 N.am    9  THR9       -0.1953
      9  CA        14.5350   29.8370   27.3580 C.3     9  THR9        0.1897
     10  C         13.2580   30.5530   26.9000 C.2     9  THR9        0.2313
     11  O         12.2460   29.8960   26.6730 O.2     9  THR9       -0.2863
     12  CB        14.6390   29.8790   28.9130 C.3     9  THR9        0.1794
     13  OG1       15.8040   29.1570   29.3430 O.3     9  THR9       -0.2208
     14  CG2       13.4510   29.1380   29.5690 C.3     9  THR9        0.0378
     15  N         30.6420   36.3040   34.2580 N.3    23  ASP23      -0.1239
     16  CA        29.6850   35.5510   33.4510 C.3    23  ASP23       0.1674
     17  C         28.2270   35.9710   33.6840 C.2    23  ASP23       0.2266
     18  O         27.3210   35.1390   33.6790 O.2    23  ASP23      -0.2867
     19  CB        29.9470   34.0240   33.5940 C.3    23  ASP23       0.1410
     20  CG        31.2880   33.6400   32.9550 C.2    23  ASP23       0.3668
     21  OD1       31.4600   33.9500   31.7340 O.co2  23  ASP23      -0.2456
     22  OD2       32.2520   33.1600   33.6300 O.co2  23  ASP23      -0.2456
     23  N         25.1870   38.0590   32.0850 N.3    25  THR25      -0.1218
     24  CA        24.6500   38.5900   30.8770 C.3    25  THR25       0.1862
     25  C         23.7120   39.7510   31.2050 C.2    25  THR25       0.2287
     26  O         22.8680   39.6590   32.0810 O.2    25  THR25      -0.2866
     27  CB        23.9150   37.4670   30.1920 C.3    25  THR25       0.1770
     28  OG1       24.8690   36.5020   29.7190 O.3    25  THR25      -0.2211
     29  CG2       23.1490   37.9310   28.9540 C.3    25  THR25       0.0375
     30  N         21.3000   37.9200   33.8650 N.3    48  VAL48      -0.1245
     31  CA        21.5040   36.4930   34.1010 C.3    48  VAL48       0.1561
     32  C         22.8310   36.3230   34.8030 C.2    48  VAL48       0.2260
     33  O         23.8800   36.5090   34.2090 O.2    48  VAL48      -0.2867
     34  CB        21.4870   35.6820   32.7720 C.3    48  VAL48       0.0252
     35  CG1       21.3200   34.2040   33.0570 C.3    48  VAL48       0.0019
     36  CG2       20.3660   36.1530   31.8590 C.3    48  VAL48       0.0019
     37  N         13.6840   33.7260   36.9450 N.3   108  THR108     -0.1218
     38  CA        13.9240   32.4370   37.5940 C.3   108  THR108      0.1862
     39  C         15.1040   32.4900   38.5660 C.2   108  THR108      0.2287
     40  O         16.0820   33.2400   38.3680 O.2   108  THR108     -0.2866
     41  CB        14.1740   31.2580   36.5650 C.3   108  THR108      0.1770
     42  OG1       15.4170   31.4440   35.8670 O.3   108  THR108     -0.2211
     43  CG2       13.1300   31.2040   35.4470 C.3   108  THR108      0.0375
     44  N         17.3790   29.3810   40.2600 N.3   110  ASN110     -0.1225
     45  CA        17.7190   27.9930   40.4650 C.3   110  ASN110      0.1785
     46  C         19.0500   27.8600   41.2210 C.2   110  ASN110      0.2598
     47  O         19.5450   28.8320   41.8280 O.2   110  ASN110     -0.2718
     48  CB        17.6620   27.2490   39.1270 C.3   110  ASN110      0.1169
     49  CG        18.7410   27.6770   38.1270 C.2   110  ASN110      0.2627
     50  OD1       19.8840   27.8800   38.4930 O.2   110  ASN110     -0.2716
     51  ND2       18.3690   27.7430   36.8510 N.am  110  ASN110     -0.0877
     52  N         19.6310   26.6680   41.2230 N.am  111  SER111     -0.1938
     53  CA        20.8120   26.3890   42.0590 C.3   111  SER111      0.2055
     54  C         22.1380   26.9980   41.5450 C.2   111  SER111      0.2644
     55  O         23.0890   27.1820   42.3150 O.2   111  SER111     -0.2714
     56  CB        20.9870   24.8610   42.2090 C.3   111  SER111      0.2130
     57  OG        21.0360   24.2470   40.9150 O.3   111  SER111     -0.2179
     58  N         22.2310   27.2510   40.2470 N.am  112  THR112     -0.1936
     59  CA        23.4280   27.8840   39.6950 C.3   112  THR112      0.2028
     60  C         23.2750   29.3950   39.2860 C.2   112  THR112      0.2642
     61  O         24.2730   30.0860   39.1800 O.2   112  THR112     -0.2714
     62  CB        23.8960   27.1100   38.4560 C.3   112  THR112      0.1808
     63  OG1       22.8420   27.1200   37.4840 O.3   112  THR112     -0.2208
     64  CG2       24.2290   25.6120   38.7670 C.3   112  THR112      0.0379
     65  N         22.0730   29.8690   39.0080 N.am  113  HIS113     -0.1973
     66  CA        21.8800   31.2210   38.4440 C.3   113  HIS113      0.1656
     67  C         20.6700   31.8880   38.9860 C.2   113  HIS113      0.2291
     68  O         19.6670   31.2200   39.2690 O.2   113  HIS113     -0.2864
     69  CB        21.7620   31.1940   36.8940 C.3   113  HIS113      0.0771
     70  CG        23.0360   30.7960   36.2040 C.ar  113  HIS113      0.0820
     71  ND1       23.5100   29.4960   36.2070 N.ar  113  HIS113     -0.2267
     72  CD2       23.9490   31.5300   35.5110 C.ar  113  HIS113      0.1154
     73  CE1       24.6550   29.4440   35.5400 C.ar  113  HIS113      0.1986
     74  NE2       24.9450   30.6610   35.1040 N.ar  113  HIS113     -0.2212
     75  N         18.1410   34.8430   37.3060 N.3   115  LYS115     -0.1245
     76  CA        17.8140   35.4990   36.0760 C.3   115  LYS115      0.1561
     77  C         16.6650   36.4680   36.3760 C.2   115  LYS115      0.2260
     78  O         15.5360   36.0390   36.5470 O.2   115  LYS115     -0.2867
     79  CB        17.3920   34.4910   35.0170 C.3   115  LYS115      0.0271
     80  CG        16.8770   35.1750   33.7770 C.3   115  LYS115      0.0035
     81  CD        16.8840   34.3270   32.5310 C.3   115  LYS115      0.0206
     82  CE        15.5300   34.0310   32.0350 C.3   115  LYS115      0.1093
     83  NZ        15.6070   33.4500   30.6600 N.3   115  LYS115     -0.1314
@<TRIPOS>BOND
     1     4     3    2
     2     2     5    1
     3     2     1    1
     4     2     3    1
     5     5     6    1
     6     1     7    1
     7     3     8   am
     8     7     6    1
     9    11    10    2
    10     8     9    1
    11    10     9    1
    12     9    12    1
    13    12    13    1
    14    12    14    1
    15    29    27    1
    16    28    27    1
    17    27    24    1
    18    83    82    1
    19    24    25    1
    20    24    23    1
    21    25    26    2
    22    21    20   ar
    23    36    34    1
    24    82    81    1
    25    81    80    1
    26    34    35    1
    27    34    31    1
    28    20    19    1
    29    20    22   ar
    30    16    19    1
    31    16    17    1
    32    16    15    1
    33    18    17    2
    34    80    79    1
    35    30    31    1
    36    31    32    1
    37    33    32    2
    38    79    76    1
    39    74    72   ar
    40    74    73   ar
    41    43    41    1
    42    72    70   ar
    43    73    71   ar
    44    42    41    1
    45    76    77    1
    46    76    75    1
    47    70    71   ar
    48    70    69    1
    49    77    78    2
    50    41    38    1
    51    51    49   am
    52    69    66    1
    53    37    38    1
    54    63    62    1
    55    38    39    1
    56    49    50    2
    57    49    48    1
    58    40    39    2
    59    66    67    1
    60    66    65    1
    61    62    64    1
    62    62    59    1
    63    67    68    2
    64    65    60   am
    65    48    45    1
    66    61    60    2
    67    60    59    1
    68    59    58    1
    69    58    54   am
    70    44    45    1
    71    45    46    1
    72    57    56    1
    73    46    52   am
    74    46    47    2
    75    52    53    1
    76    54    53    1
    77    54    55    2
    78    53    56    1
