@<TRIPOS>MOLECULE
tmp/1pl6D01.pdb
 148 141 0 0 0
SMALL
GASTEIGER

@<TRIPOS>ATOM
      1  N         86.6820   19.8180  -19.7870 N.3    43  CYS43      -0.1235
      2  CA        86.9000   18.9700  -18.6240 C.3    43  CYS43       0.1677
      3  C         88.3730   18.6110  -18.5580 C.2    43  CYS43       0.2270
      4  O         89.0330   18.5140  -19.5910 O.2    43  CYS43      -0.2867
      5  CB        86.0690   17.6910  -18.7530 C.3    43  CYS43       0.0956
      6  SG        86.4510   16.4410  -17.5150 S.3    43  CYS43      -0.0801
      7  N         89.7230   15.9280  -18.2530 N.3    45  SER45      -0.1217
      8  CA        90.0290   14.7390  -19.0490 C.3    45  SER45       0.1889
      9  C         90.3130   15.0730  -20.5160 C.2    45  SER45       0.2288
     10  O         91.1970   14.4670  -21.1210 O.2    45  SER45      -0.2866
     11  CB        88.9020   13.7010  -18.9470 C.3    45  SER45       0.2089
     12  OG        87.6440   14.2450  -19.2880 O.3    45  SER45      -0.2183
     13  N         93.9500   14.2350  -22.4420 N.3    49  TYR49      -0.1241
     14  CA        94.2060   13.5430  -23.6980 C.3    49  TYR49       0.1605
     15  C         95.1100   14.3930  -24.5930 C.2    49  TYR49       0.2264
     16  O         95.9910   13.8700  -25.2880 O.2    49  TYR49      -0.2867
     17  CB        92.8990   13.2250  -24.4210 C.3    49  TYR49       0.0534
     18  CG        92.1520   12.0720  -23.7910 C.ar   49  TYR49      -0.0201
     19  CD1       90.9320   12.2720  -23.1490 C.ar   49  TYR49      -0.0009
     20  CD2       92.6910   10.7790  -23.8080 C.ar   49  TYR49      -0.0009
     21  CE1       90.2590   11.2070  -22.5310 C.ar   49  TYR49       0.0417
     22  CE2       92.0320    9.7130  -23.1940 C.ar   49  TYR49       0.0417
     23  CZ        90.8230    9.9360  -22.5570 C.ar   49  TYR49       0.1957
     24  OH        90.1940    8.9010  -21.9170 O.3    49  TYR49      -0.2866
     25  N         94.6830    8.2620  -21.1010 N.3    55  ILE55      -0.1231
     26  CA        94.3380    8.2800  -19.6860 C.3    55  ILE55       0.1692
     27  C         94.2980    6.7950  -19.3700 C.2    55  ILE55       0.2592
     28  O         93.4280    6.0680  -19.8600 O.2    55  ILE55      -0.2718
     29  CB        92.9680    8.9060  -19.3810 C.3    55  ILE55       0.0266
     30  CG1       92.9560   10.3810  -19.7970 C.3    55  ILE55       0.0019
     31  CG2       92.6970    8.8190  -17.8730 C.3    55  ILE55       0.0020
     32  CD1       91.6870   11.1130  -19.4080 C.3    55  ILE55       0.0001
     33  N         95.2570    6.3370  -18.5780 N.am   56  GLY56      -0.1957
     34  CA        95.3110    4.9220  -18.2660 C.3    56  GLY56       0.1869
     35  C         95.5130    4.1800  -19.5770 C.2    56  GLY56       0.2309
     36  O         96.3700    4.5560  -20.3790 O.2    56  GLY56      -0.2863
     37  N         93.3100    4.0320  -21.9490 N.3    58  PHE58      -0.1241
     38  CA        92.4620    4.5940  -22.9900 C.3    58  PHE58       0.1605
     39  C         93.3560    5.5530  -23.7460 C.2    58  PHE58       0.2264
     40  O         93.5940    6.6830  -23.3110 O.2    58  PHE58      -0.2867
     41  CB        91.2630    5.3290  -22.3940 C.3    58  PHE58       0.0534
     42  CG        90.2390    4.4130  -21.7950 C.ar   58  PHE58      -0.0203
     43  CD1       90.4150    3.8880  -20.5170 C.ar   58  PHE58      -0.0042
     44  CD2       89.1100    4.0530  -22.5190 C.ar   58  PHE58      -0.0042
     45  CE1       89.4750    3.0150  -19.9660 C.ar   58  PHE58      -0.0003
     46  CE2       88.1630    3.1810  -21.9810 C.ar   58  PHE58      -0.0003
     47  CZ        88.3460    2.6610  -20.7000 C.ar   58  PHE58      -0.0000
     48  N         82.7420   16.6650  -24.1220 N.3    67  HIS67      -0.1241
     49  CA        81.6860   15.7660  -23.6680 C.3    67  HIS67       0.1621
     50  C         80.6880   16.3870  -22.6790 C.2    67  HIS67       0.2264
     51  O         79.7440   15.7240  -22.2820 O.2    67  HIS67      -0.2867
     52  CB        82.2890   14.4870  -23.0650 C.3    67  HIS67       0.0745
     53  CG        83.1580   14.7260  -21.8720 C.ar   67  HIS67       0.0817
     54  ND1       84.4980   15.0340  -21.9730 N.ar   67  HIS67      -0.2268
     55  CD2       82.8790   14.6900  -20.5460 C.ar   67  HIS67       0.1154
     56  CE1       85.0090   15.1720  -20.7620 C.ar   67  HIS67       0.1986
     57  NE2       84.0450   14.9690  -19.8800 N.ar   67  HIS67      -0.2212
     58  N         80.7980    6.6850  -25.3380 N.3   115  PHE115     -0.1241
     59  CA        80.9560    7.8590  -24.4840 C.3   115  PHE115      0.1605
     60  C         81.7990    8.9380  -25.1480 C.2   115  PHE115      0.2264
     61  O         82.9750    8.7280  -25.4280 O.2   115  PHE115     -0.2867
     62  CB        81.5850    7.5040  -23.1360 C.3   115  PHE115      0.0534
     63  CG        81.3900    8.5750  -22.0950 C.ar  115  PHE115     -0.0203
     64  CD1       80.3280    8.4990  -21.1930 C.ar  115  PHE115     -0.0042
     65  CD2       82.2240    9.6950  -22.0590 C.ar  115  PHE115     -0.0042
     66  CE1       80.0940    9.5210  -20.2730 C.ar  115  PHE115     -0.0003
     67  CE2       82.0000   10.7310  -21.1390 C.ar  115  PHE115     -0.0003
     68  CZ        80.9350   10.6440  -20.2450 C.ar  115  PHE115     -0.0000
     69  N         86.0150    9.7010  -25.1430 N.3   118  THR118     -0.1218
     70  CA        86.8190    8.7060  -24.4360 C.3   118  THR118      0.1862
     71  C         87.1760    7.8030  -25.6270 C.2   118  THR118      0.2287
     72  O         86.2970    7.1940  -26.2400 O.2   118  THR118     -0.2866
     73  CB        86.0170    7.9310  -23.3590 C.3   118  THR118      0.1770
     74  OG1       85.8680    8.7580  -22.1970 O.3   118  THR118     -0.2211
     75  CG2       86.7630    6.6560  -22.9550 C.3   118  THR118      0.0375
     76  N         76.3790   17.9050  -17.1240 N.3   152  GLU152     -0.1245
     77  CA        77.3000   16.7680  -17.1840 C.3   152  GLU152      0.1567
     78  C         78.1580   16.6800  -15.9110 C.2   152  GLU152      0.2260
     79  O         78.1460   15.6490  -15.2260 O.2   152  GLU152     -0.2867
     80  CB        78.1530   16.8470  -18.4600 C.3   152  GLU152      0.0388
     81  CG        78.7300   15.5010  -18.9410 C.3   152  GLU152      0.1160
     82  CD        79.9500   15.0680  -18.1470 C.2   152  GLU152      0.3649
     83  OE1       80.5650   15.9260  -17.4760 O.co2 152  GLU152     -0.2457
     84  OE2       80.3060   13.8720  -18.2050 O.co2 152  GLU152     -0.2457
     85  N         77.8400   14.1220  -12.0800 N.3   156  VAL156     -0.1245
     86  CA        78.8410   13.3430  -11.3630 C.3   156  VAL156      0.1561
     87  C         78.5680   13.5690   -9.8710 C.2   156  VAL156      0.2260
     88  O         78.6120   12.6390   -9.0530 O.2   156  VAL156     -0.2867
     89  CB        80.2750   13.8200  -11.7000 C.3   156  VAL156      0.0252
     90  CG1       81.2940   13.1310  -10.7930 C.3   156  VAL156      0.0019
     91  CG2       80.5850   13.5110  -13.1560 C.3   156  VAL156      0.0019
     92  N         84.6210   19.1450   -9.6990 N.3   180  ILE180     -0.1245
     93  CA        83.8720   17.9770   -9.2460 C.3   180  ILE180      0.1561
     94  C         83.5290   18.1370   -7.7680 C.2   180  ILE180      0.2260
     95  O         82.3920   17.9010   -7.3600 O.2   180  ILE180     -0.2867
     96  CB        84.6790   16.6870   -9.5040 C.3   180  ILE180      0.0252
     97  CG1       84.9060   16.5390  -11.0150 C.3   180  ILE180      0.0019
     98  CG2       83.9360   15.4610   -8.9450 C.3   180  ILE180      0.0019
     99  CD1       83.6100   16.5590  -11.8520 C.3   180  ILE180      0.0001
    100  N         90.2920    9.8670   -9.4360 N.3   269  LEU269     -0.1245
    101  CA        91.0910    8.7770   -9.9930 C.3   269  LEU269      0.1561
    102  C         92.5250    8.8220   -9.5000 C.2   269  LEU269      0.2260
    103  O         93.2070    9.8360   -9.6410 O.2   269  LEU269     -0.2867
    104  CB        91.1010    8.8490  -11.5240 C.3   269  LEU269      0.0270
    105  CG        89.9680    8.1810  -12.3140 C.3   269  LEU269      0.0019
    106  CD1       90.3480    6.7570  -12.6550 C.3   269  LEU269      0.0001
    107  CD2       88.6610    8.2400  -11.5280 C.3   269  LEU269      0.0001
    108  N         82.5180    5.4270   -7.9670 N.3   290  VAL290     -0.1231
    109  CA        81.6120    6.0870   -8.8850 C.3   290  VAL290      0.1692
    110  C         82.1810    5.9510  -10.2880 C.2   290  VAL290      0.2592
    111  O         83.3800    6.1170  -10.4910 O.2   290  VAL290     -0.2718
    112  CB        81.4960    7.5940   -8.5290 C.3   290  VAL290      0.0266
    113  CG1       81.2150    8.4240   -9.7710 C.3   290  VAL290      0.0020
    114  CG2       80.4040    7.7920   -7.4860 C.3   290  VAL290      0.0020
    115  N         81.3340    5.6030  -11.2460 N.am  291  PHE291     -0.1962
    116  CA        81.7660    5.5450  -12.6290 C.3   291  PHE291      0.1771
    117  C         80.7700    6.3810  -13.4020 C.2   291  PHE291      0.2619
    118  O         79.7350    5.8850  -13.8740 O.2   291  PHE291     -0.2715
    119  CB        81.7900    4.1330  -13.2060 C.3   291  PHE291      0.0574
    120  CG        82.3930    4.0810  -14.5900 C.ar  291  PHE291     -0.0200
    121  CD1       83.7320    4.4210  -14.7850 C.ar  291  PHE291     -0.0042
    122  CD2       81.6150    3.7640  -15.6990 C.ar  291  PHE291     -0.0042
    123  CE1       84.2930    4.4520  -16.0780 C.ar  291  PHE291     -0.0003
    124  CE2       82.1590    3.7890  -16.9910 C.ar  291  PHE291     -0.0003
    125  CZ        83.5030    4.1350  -17.1810 C.ar  291  PHE291     -0.0000
    126  N         81.1010    7.6640  -13.5030 N.am  292  ARG292     -0.1963
    127  CA        80.3000    8.6590  -14.1800 C.3   292  ARG292      0.1729
    128  C         78.9210    8.8700  -13.5610 C.2   292  ARG292      0.2616
    129  O         78.8190    9.5430  -12.5320 O.2   292  ARG292     -0.2715
    130  CB        80.2500    8.3450  -15.6870 C.3   292  ARG292      0.0348
    131  CG        81.7070    8.3100  -16.2160 C.3   292  ARG292      0.0492
    132  CD        81.9510    8.4290  -17.7170 C.3   292  ARG292      0.2205
    133  NE        81.6180    7.2220  -18.4380 N.pl3 292  ARG292     -0.0865
    134  CZ        82.3510    6.6550  -19.3960 C.cat 292  ARG292      0.5346
    135  NH1       83.5180    7.1540  -19.7970 N.pl3 292  ARG292      0.1354
    136  NH2       81.8710    5.5810  -19.9840 N.pl3 292  ARG292      0.1354
    137  N         77.8700    8.2990  -14.1470 N.am  293  TYR293     -0.1974
    138  CA        76.5250    8.5250  -13.6350 C.3   293  TYR293      0.1639
    139  C         75.4820    7.7620  -14.4460 C.2   293  TYR293      0.2290
    140  O         75.7690    7.2530  -15.5310 O.2   293  TYR293     -0.2864
    141  CB        76.2000   10.0270  -13.7550 C.3   293  TYR293      0.0560
    142  CG        76.7720   10.6340  -15.0440 C.ar  293  TYR293     -0.0198
    143  CD1       76.3690   10.1670  -16.3010 C.ar  293  TYR293     -0.0009
    144  CD2       77.7780   11.6070  -15.0010 C.ar  293  TYR293     -0.0009
    145  CE1       76.9610   10.6480  -17.4900 C.ar  293  TYR293      0.0417
    146  CE2       78.3770   12.0940  -16.1840 C.ar  293  TYR293      0.0417
    147  CZ        77.9630   11.6060  -17.4190 C.ar  293  TYR293      0.1957
    148  OH        78.5540   12.0570  -18.5860 O.3   293  TYR293     -0.2866
@<TRIPOS>BOND
     1    72    71    2
     2    71    70    1
     3    61    60    2
     4    58    59    1
     5    16    15    2
     6    60    59    1
     7    69    70    1
     8    15    14    1
     9    59    62    1
    10    70    73    1
    11    17    18    1
    12    17    14    1
    13    48    49    1
    14    20    18   ar
    15    20    22   ar
    16    18    19   ar
    17    39    40    2
    18    39    38    1
    19    14    13    1
    20    49    52    1
    21    49    50    1
    22    73    75    1
    23    73    74    1
    24    22    23   ar
    25    19    21   ar
    26    62    63    1
    27    52    53    1
    28    38    41    1
    29    38    37    1
    30    50    51    2
    31    23    21   ar
    32    23    24    1
    33    44    46   ar
    34    44    42   ar
    35    41    42    1
    36    63    65   ar
    37    63    64   ar
    38    65    67   ar
    39    46    47   ar
    40    54    53   ar
    41    54    56   ar
    42    53    55   ar
    43    42    43   ar
    44    64    66   ar
    45    67    68   ar
    46    10     9    2
    47    25    26    1
    48    56    57   ar
    49    47    45   ar
    50    55    57   ar
    51    43    45   ar
    52     9     8    1
    53    36    35    2
    54    66    68   ar
    55   136   134    1
    56    28    27    2
    57    30    32    1
    58    30    29    1
    59   135   134    1
    60     1     2    1
    61    26    29    1
    62    26    27    1
    63     4     3    2
    64    35    34    1
    65   134   133    2
    66    29    31    1
    67    27    33   am
    68    12    11    1
    69     8    11    1
    70     8     7    1
    71    81    80    1
    72    81    82    1
    73     5     2    1
    74     5     6    1
    75     2     3    1
    76   148   147    1
    77    33    34    1
    78    80    77    1
    79   133   132    1
    80    84    82   ar
    81    82    83   ar
    82   132   131    1
    83   145   147   ar
    84   145   143   ar
    85   147   146   ar
    86    77    76    1
    87    77    78    1
    88   125   124   ar
    89   125   123   ar
    90   124   122   ar
    91   143   142   ar
    92   131   130    1
    93   146   144   ar
    94   123   121   ar
    95    78    79    2
    96   122   120   ar
    97   130   127    1
    98   140   139    2
    99   142   144   ar
   100   142   141    1
   101   121   120   ar
   102   120   119    1
   103   139   138    1
   104   127   128    1
   105   127   126    1
   106   137   138    1
   107   137   128   am
   108   118   117    2
   109   141   138    1
   110   128   129    2
   111   126   117   am
   112   117   116    1
   113   119   116    1
   114    91    89    1
   115   106   105    1
   116   116   115    1
   117   105   107    1
   118   105   104    1
   119    85    86    1
   120    99    97    1
   121    89    86    1
   122    89    90    1
   123   104   101    1
   124    86    87    1
   125   115   110   am
   126    97    96    1
   127   111   110    2
   128   110   109    1
   129   101   102    1
   130   101   100    1
   131    87    88    2
   132   113   112    1
   133    92    93    1
   134   103   102    2
   135    96    93    1
   136    96    98    1
   137    93    94    1
   138   109   112    1
   139   109   108    1
   140   112   114    1
   141    94    95    2
