@<TRIPOS>MOLECULE
tmp/1pl8D00.pdb
 189 178 0 0 0
SMALL
GASTEIGER

@<TRIPOS>ATOM
      1  N         86.5080   19.7550  -19.6020 N.3    44  CYS44      -0.1221
      2  CA        86.9760   19.3920  -18.2730 C.3    44  CYS44       0.1808
      3  C         88.3170   18.6890  -18.3750 C.2    44  CYS44       0.2601
      4  O         88.8230   18.4590  -19.4730 O.2    44  CYS44      -0.2717
      5  CB        85.9710   18.4740  -17.5770 C.3    44  CYS44       0.0970
      6  SG        86.0820   16.7480  -18.0890 S.3    44  CYS44      -0.0800
      7  N         88.8760   18.3460  -17.2210 N.am   45  GLY45      -0.1957
      8  CA        90.1660   17.6860  -17.1730 C.3    45  GLY45       0.1869
      9  C         90.3420   16.5090  -18.1110 C.2    45  GLY45       0.2309
     10  O         91.4440   16.2700  -18.6000 O.2    45  GLY45      -0.2863
     11  N         75.9440   17.8060  -17.3000 N.3   155  GLU155     -0.1245
     12  CA        76.8820   16.6880  -17.3280 C.3   155  GLU155      0.1567
     13  C         77.7110   16.6250  -16.0390 C.2   155  GLU155      0.2260
     14  O         77.7160   15.5970  -15.3610 O.2   155  GLU155     -0.2867
     15  CB        77.7750   16.7800  -18.5700 C.3   155  GLU155      0.0388
     16  CG        78.4830   15.4790  -18.9630 C.3   155  GLU155      0.1160
     17  CD        79.6830   15.1690  -18.0960 C.2   155  GLU155      0.3649
     18  OE1       80.2640   16.1170  -17.5290 O.co2 155  GLU155     -0.2457
     19  OE2       80.0600   13.9800  -17.9980 O.co2 155  GLU155     -0.2457
     20  N         77.3630   14.1550  -12.1950 N.3   159  VAL159     -0.1245
     21  CA        78.3560   13.3810  -11.4640 C.3   159  VAL159      0.1561
     22  C         78.0590   13.6000   -9.9790 C.2   159  VAL159      0.2260
     23  O         78.1340   12.6700   -9.1680 O.2   159  VAL159     -0.2867
     24  CB        79.7970   13.8490  -11.7770 C.3   159  VAL159      0.0252
     25  CG1       80.7930   13.0950  -10.9030 C.3   159  VAL159      0.0019
     26  CG2       80.1150   13.6030  -13.2450 C.3   159  VAL159      0.0019
     27  N         87.9070   17.9290   -1.9440 N.3   179  GLY179     -0.1225
     28  CA        88.2240   18.4990   -3.2390 C.3   179  GLY179      0.1811
     29  C         87.2160   19.5640   -3.6240 C.2   179  GLY179      0.2280
     30  O         86.0020   19.3560   -3.5200 O.2   179  GLY179     -0.2866
     31  N         87.2960   21.1100   -6.7340 N.3   181  GLY181     -0.1210
     32  CA        87.4070   21.2900   -8.1670 C.3   181  GLY181      0.1940
     33  C         85.9670   21.3460   -8.6430 C.2   181  GLY181      0.2454
     34  O         85.0610   21.2800   -7.8110 O.2   181  GLY181     -0.2732
     35  N         85.7040   21.4650   -9.9520 N.am  182  PRO182     -0.2717
     36  CA        84.2980   21.5190  -10.3600 C.3   182  PRO182      0.1535
     37  C         83.4530   20.3300   -9.9010 C.2   182  PRO182      0.2598
     38  O         82.2570   20.4760   -9.6770 O.2   182  PRO182     -0.2715
     39  CB        84.3790   21.6510  -11.8850 C.3   182  PRO182      0.0310
     40  CG        85.7190   21.0550  -12.2230 C.3   182  PRO182      0.0237
     41  CD        86.6000   21.5630  -11.1170 C.3   182  PRO182      0.0939
     42  N         84.0670   19.1600   -9.7470 N.am  183  ILE183     -0.1964
     43  CA        83.3120   17.9840   -9.3040 C.3   183  ILE183      0.1727
     44  C         82.9250   18.1040   -7.8280 C.2   183  ILE183      0.2616
     45  O         81.7950   17.7910   -7.4450 O.2   183  ILE183     -0.2715
     46  CB        84.1120   16.6860   -9.5280 C.3   183  ILE183      0.0290
     47  CG1       84.3760   16.5050  -11.0260 C.3   183  ILE183      0.0022
     48  CG2       83.3330   15.4770   -8.9780 C.3   183  ILE183      0.0023
     49  CD1       83.1000   16.4980  -11.8790 C.3   183  ILE183      0.0001
     50  N         83.8600   18.5570   -6.9990 N.am  184  GLY184     -0.1955
     51  CA        83.5470   18.7300   -5.5920 C.3   184  GLY184      0.1869
     52  C         82.5000   19.8260   -5.4580 C.2   184  GLY184      0.2309
     53  O         81.6220   19.7670   -4.5980 O.2   184  GLY184     -0.2863
     54  N         87.0090   20.2950    1.5140 N.3   202  THR202     -0.1203
     55  CA        88.4470   20.3880    1.7090 C.3   202  THR202      0.1994
     56  C         89.1080   20.5850    0.3590 C.2   202  THR202      0.2618
     57  O         88.5380   20.2420   -0.6790 O.2   202  THR202     -0.2717
     58  CB        89.0400   19.1130    2.3230 C.3   202  THR202      0.1784
     59  OG1       88.9880   18.0550    1.3590 O.3   202  THR202     -0.2211
     60  CG2       88.2760   18.7090    3.5780 C.3   202  THR202      0.0376
     61  N         90.3150   21.1410    0.3790 N.am  203  ASP203     -0.1959
     62  CA        91.0780   21.3640   -0.8410 C.3   203  ASP203      0.1840
     63  C         92.4480   21.9230   -0.4820 C.2   203  ASP203      0.2622
     64  O         92.6700   22.3630    0.6460 O.2   203  ASP203     -0.2715
     65  CB        90.3430   22.3310   -1.7710 C.3   203  ASP203      0.1450
     66  CG        90.8460   22.2510   -3.2010 C.2   203  ASP203      0.3671
     67  OD1       91.9320   22.7920   -3.4970 O.co2 203  ASP203     -0.2456
     68  OD2       90.1590   21.6240   -4.0290 O.co2 203  ASP203     -0.2456
     69  N         93.3660   21.8920   -1.4400 N.am  204  LEU204     -0.1963
     70  CA        94.7120   22.4020   -1.2120 C.3   204  LEU204      0.1728
     71  C         94.7380   23.9020   -1.4760 C.2   204  LEU204      0.2616
     72  O         95.6210   24.6100   -0.9930 O.2   204  LEU204     -0.2715
     73  CB        95.7090   21.7110   -2.1470 C.3   204  LEU204      0.0311
     74  CG        95.8290   20.1840   -2.0840 C.3   204  LEU204      0.0022
     75  CD1       96.7400   19.7090   -3.2040 C.3   204  LEU204      0.0001
     76  CD2       96.3800   19.7520   -0.7410 C.3   204  LEU204      0.0001
     77  N         93.7520   24.3770   -2.2290 N.am  205  SER205     -0.1950
     78  CA        93.6650   25.7840   -2.6010 C.3   205  SER205      0.1924
     79  C         92.6790   26.6380   -1.8140 C.2   205  SER205      0.2314
     80  O         91.4770   26.3640   -1.7850 O.2   205  SER205     -0.2863
     81  CB        93.3330   25.8960   -4.0880 C.3   205  SER205      0.2116
     82  OG        92.9790   27.2240   -4.4160 O.3   205  SER205     -0.2180
     83  N         89.9740   28.0850   -4.1620 N.3   208  ARG208     -0.1245
     84  CA        88.8590   27.2100   -4.4960 C.3   208  ARG208      0.1563
     85  C         87.9080   27.0700   -3.3170 C.2   208  ARG208      0.2260
     86  O         86.6980   26.9760   -3.5030 O.2   208  ARG208     -0.2867
     87  CB        89.3720   25.8430   -4.9500 C.3   208  ARG208      0.0307
     88  CG        90.0400   25.9140   -6.3190 C.3   208  ARG208      0.0489
     89  CD        90.2280   24.5550   -6.9750 C.3   208  ARG208      0.2205
     90  NE        90.3260   24.7210   -8.4250 N.pl3 208  ARG208     -0.0865
     91  CZ        90.4200   23.7290   -9.3050 C.cat 208  ARG208      0.5346
     92  NH1       90.4360   22.4660   -8.9020 N.pl3 208  ARG208      0.1354
     93  NH2       90.4800   24.0070  -10.6010 N.pl3 208  ARG208      0.1354
     94  N         93.8590   22.0050    3.0460 N.3   223  ILE223     -0.1245
     95  CA        94.7840   20.9250    3.3480 C.3   223  ILE223      0.1561
     96  C         96.2070   21.2380    2.9150 C.2   223  ILE223      0.2260
     97  O         96.4400   21.7260    1.8100 O.2   223  ILE223     -0.2867
     98  CB        94.3590   19.6150    2.6450 C.3   223  ILE223      0.0252
     99  CG1       92.9220   19.2540    3.0310 C.3   223  ILE223      0.0019
    100  CG2       95.3230   18.4930    3.0120 C.3   223  ILE223      0.0019
    101  CD1       92.6900   19.1220    4.5270 C.3   223  ILE223      0.0001
    102  N         86.4570   13.6130   -3.9700 N.3   249  CYS249     -0.1221
    103  CA        86.5650   14.1350   -5.3260 C.3   249  CYS249      0.1808
    104  C         87.9650   14.6170   -5.7020 C.2   249  CYS249      0.2601
    105  O         88.1050   15.6110   -6.4120 O.2   249  CYS249     -0.2717
    106  CB        85.5710   15.2800   -5.5240 C.3   249  CYS249      0.0970
    107  SG        83.8600   14.8720   -5.1120 S.3   249  CYS249     -0.0800
    108  N         88.9970   13.9200   -5.2390 N.am  250  THR250     -0.1953
    109  CA        90.3660   14.3070   -5.5670 C.3   250  THR250      0.1897
    110  C         91.1310   13.1410   -6.1820 C.2   250  THR250      0.2313
    111  O         91.9550   13.3260   -7.0790 O.2   250  THR250     -0.2863
    112  CB        91.1470   14.7730   -4.3170 C.3   250  THR250      0.1794
    113  OG1       91.4740   13.6380   -3.5090 O.3   250  THR250     -0.2208
    114  CG2       90.3160   15.7530   -3.4960 C.3   250  THR250      0.0378
    115  N         93.1860   11.4590   -4.5420 N.3   252  ALA252     -0.1245
    116  CA        94.4230   11.3680   -3.7670 C.3   252  ALA252      0.1562
    117  C         94.3230   10.3110   -2.6750 C.2   252  ALA252      0.2260
    118  O         93.3590   10.2850   -1.9080 O.2   252  ALA252     -0.2867
    119  CB        94.7530   12.7250   -3.1510 C.3   252  ALA252      0.0290
    120  N         95.8290    9.9860    0.1620 N.3   254  ALA254     -0.1231
    121  CA        95.7340   10.5370    1.5110 C.3   254  ALA254      0.1694
    122  C         94.3110   10.9790    1.8330 C.2   254  ALA254      0.2592
    123  O         93.8380   10.8130    2.9590 O.2   254  ALA254     -0.2718
    124  CB        96.6930   11.7120    1.6660 C.3   254  ALA254      0.0304
    125  N         93.6330   11.5390    0.8360 N.am  255  SER255     -0.1952
    126  CA        92.2690   12.0170    1.0110 C.3   255  SER255      0.1924
    127  C         91.3140   10.8430    1.2170 C.2   255  SER255      0.2314
    128  O         90.3900   10.9180    2.0290 O.2   255  SER255     -0.2863
    129  CB        91.8460   12.8410   -0.2030 C.3   255  SER255      0.2116
    130  OG        90.5880   13.4500    0.0180 O.3   255  SER255     -0.2180
    131  N         84.8130    9.2300   -6.0830 N.3   272  VAL272     -0.1231
    132  CA        84.5560    9.8120   -7.3900 C.3   272  VAL272      0.1692
    133  C         85.8880   10.0980   -8.0730 C.2   272  VAL272      0.2593
    134  O         86.0820    9.7680   -9.2420 O.2   272  VAL272     -0.2718
    135  CB        83.7490   11.1260   -7.2620 C.3   272  VAL272      0.0266
    136  CG1       83.4780   11.7170   -8.6450 C.3   272  VAL272      0.0020
    137  CG2       82.4370   10.8560   -6.5450 C.3   272  VAL272      0.0020
    138  N         86.8110   10.6950   -7.3270 N.am  273  GLY273     -0.1942
    139  CA        88.1110   11.0230   -7.8820 C.3   273  GLY273      0.2014
    140  C         88.8790    9.8250   -8.4060 C.2   273  GLY273      0.2638
    141  O         88.8170    8.7350   -7.8370 O.2   273  GLY273     -0.2714
    142  N         89.6080   10.0310   -9.4970 N.am  274  LEU274     -0.1977
    143  CA        90.4040    8.9690  -10.1040 C.3   274  LEU274      0.1596
    144  C         91.8730    9.1100   -9.7120 C.2   274  LEU274      0.2287
    145  O         92.4780   10.1670   -9.9040 O.2   274  LEU274     -0.2864
    146  CB        90.2640    9.0180  -11.6290 C.3   274  LEU274      0.0297
    147  CG        89.0160    8.3970  -12.2750 C.3   274  LEU274      0.0022
    148  CD1       89.2300    6.9140  -12.4610 C.3   274  LEU274      0.0001
    149  CD2       87.7900    8.6470  -11.4300 C.3   274  LEU274      0.0001
    150  N         82.0060    5.4720   -8.0960 N.3   296  VAL296     -0.1231
    151  CA        81.1080    6.1340   -9.0190 C.3   296  VAL296      0.1692
    152  C         81.7040    6.0600  -10.4150 C.2   296  VAL296      0.2592
    153  O         82.8920    6.3210  -10.6000 O.2   296  VAL296     -0.2718
    154  CB        80.9220    7.6290   -8.6260 C.3   296  VAL296      0.0266
    155  CG1       80.6570    8.4790   -9.8580 C.3   296  VAL296      0.0020
    156  CG2       79.7830    7.7640   -7.6360 C.3   296  VAL296      0.0020
    157  N         80.8920    5.6580  -11.3840 N.am  297  PHE297     -0.1962
    158  CA        81.3440    5.6340  -12.7630 C.3   297  PHE297      0.1771
    159  C         80.3350    6.4620  -13.5250 C.2   297  PHE297      0.2619
    160  O         79.2830    5.9690  -13.9510 O.2   297  PHE297     -0.2715
    161  CB        81.3970    4.2310  -13.3600 C.3   297  PHE297      0.0574
    162  CG        81.9770    4.2070  -14.7480 C.ar  297  PHE297     -0.0200
    163  CD1       83.2560    4.7120  -14.9820 C.ar  297  PHE297     -0.0042
    164  CD2       81.2420    3.7220  -15.8270 C.ar  297  PHE297     -0.0042
    165  CE1       83.7950    4.7370  -16.2720 C.ar  297  PHE297     -0.0003
    166  CE2       81.7730    3.7430  -17.1210 C.ar  297  PHE297     -0.0003
    167  CZ        83.0520    4.2520  -17.3420 C.ar  297  PHE297     -0.0000
    168  N         80.6660    7.7390  -13.6610 N.am  298  ARG298     -0.1977
    169  CA        79.8370    8.7030  -14.3470 C.3   298  ARG298      0.1597
    170  C         78.4590    8.8800  -13.7190 C.2   298  ARG298      0.2287
    171  O         78.3470    9.5000  -12.6590 O.2   298  ARG298     -0.2864
    172  CB        79.7660    8.3410  -15.8350 C.3   298  ARG298      0.0334
    173  CG        81.1880    8.1940  -16.3800 C.3   298  ARG298      0.0492
    174  CD        81.3300    8.2930  -17.8800 C.3   298  ARG298      0.2205
    175  NE        80.9830    7.0590  -18.5660 N.pl3 298  ARG298     -0.0865
    176  CZ        81.7030    6.5200  -19.5450 C.cat 298  ARG298      0.5346
    177  NH1       82.8250    7.0960  -19.9550 N.pl3 298  ARG298      0.1354
    178  NH2       81.2840    5.4100  -20.1310 N.pl3 298  ARG298      0.1354
    179  N         92.6010   26.6360  -19.5550 N.3   337  PHE337     -0.1241
    180  CA        92.2740   25.5880  -18.6010 C.3   337  PHE337      0.1605
    181  C         93.5250   25.2130  -17.8210 C.2   337  PHE337      0.2264
    182  O         93.4810   25.0460  -16.6050 O.2   337  PHE337     -0.2867
    183  CB        91.7480   24.3470  -19.3180 C.3   337  PHE337      0.0534
    184  CG        91.3150   23.2560  -18.3850 C.ar  337  PHE337     -0.0203
    185  CD1       89.9920   23.1720  -17.9610 C.ar  337  PHE337     -0.0042
    186  CD2       92.2350   22.3320  -17.9010 C.ar  337  PHE337     -0.0042
    187  CE1       89.5910   22.1830  -17.0650 C.ar  337  PHE337     -0.0003
    188  CE2       91.8450   21.3370  -17.0030 C.ar  337  PHE337     -0.0003
    189  CZ        90.5220   21.2640  -16.5850 C.ar  337  PHE337     -0.0000
@<TRIPOS>BOND
     1   178   176    1
     2   177   176    1
     3     1     2    1
     4   179   180    1
     5   176   175    2
     6     4     3    2
     7   183   180    1
     8   183   184    1
     9    16    15    1
    10    16    17    1
    11   180   181    1
    12    10     9    2
    13    15    12    1
    14   175   174    1
    15   184   185   ar
    16   184   186   ar
    17     3     2    1
    18     3     7   am
    19     2     5    1
    20     9     8    1
    21    17    19   ar
    22    17    18   ar
    23     6     5    1
    24   185   187   ar
    25   186   188   ar
    26   174   173    1
    27   181   182    2
    28   167   166   ar
    29   167   165   ar
    30    12    11    1
    31    12    13    1
    32     7     8    1
    33   166   164   ar
    34   187   189   ar
    35   188   189   ar
    36   173   172    1
    37   165   163   ar
    38    13    14    2
    39   172   169    1
    40   164   162   ar
    41   163   162   ar
    42   162   161    1
    43   169   170    1
    44   169   168    1
    45   160   159    2
    46   170   171    2
    47   168   159   am
    48   159   158    1
    49   161   158    1
    50    26    24    1
    51   158   157    1
    52   148   147    1
    53   147   146    1
    54   147   149    1
    55    40    39    1
    56    40    41    1
    57    20    21    1
    58    39    36    1
    59    49    47    1
    60    24    21    1
    61    24    25    1
    62   146   143    1
    63    21    22    1
    64   157   152   am
    65    41    35    1
    66    47    46    1
    67    93    91    1
    68   153   152    2
    69   152   151    1
    70    36    35    1
    71    36    37    1
    72   143   144    1
    73   143   142    1
    74    22    23    2
    75    35    33   am
    76   145   144    2
    77    37    42   am
    78    37    38    2
    79   155   154    1
    80    42    43    1
    81    46    43    1
    82    46    48    1
    83   142   140   am
    84    91    92    1
    85    91    90    2
    86    43    44    1
    87   134   133    2
    88   151   154    1
    89   151   150    1
    90   136   135    1
    91    33    32    1
    92    33    34    2
    93   154   156    1
    94    90    89    1
    95   140   139    1
    96   140   141    2
    97    32    31    1
    98   133   132    1
    99   133   138   am
   100   139   138    1
   101    44    45    2
   102    44    50   am
   103   132   135    1
   104   132   131    1
   105   135   137    1
   106   111   110    2
   107    50    51    1
   108    89    88    1
   109   105   104    2
   110    88    87    1
   111   110   109    1
   112   104   103    1
   113   104   108   am
   114    51    52    1
   115   109   108    1
   116   109   112    1
   117   106   103    1
   118   106   107    1
   119    52    53    2
   120   103   102    1
   121    87    84    1
   122   115   116    1
   123    84    83    1
   124    84    85    1
   125    82    81    1
   126   112   113    1
   127   112   114    1
   128    81    78    1
   129    68    66   ar
   130   116   119    1
   131   116   117    1
   132    29    30    2
   133    29    28    1
   134    86    85    2
   135    67    66   ar
   136    28    27    1
   137    75    74    1
   138    66    65    1
   139   117   118    2
   140    78    77    1
   141    78    79    1
   142    77    71   am
   143    73    74    1
   144    73    70    1
   145    74    76    1
   146    79    80    2
   147    65    62    1
   148    71    70    1
   149    71    72    2
   150    69    70    1
   151    69    63   am
   152    62    63    1
   153    62    61    1
   154    57    56    2
   155    63    64    2
   156   129   130    1
   157   129   126    1
   158   120   121    1
   159    56    61   am
   160    56    55    1
   161   125   126    1
   162   125   122   am
   163   126   127    1
   164   127   128    2
   165    59    58    1
   166   121   124    1
   167   121   122    1
   168    54    55    1
   169    55    58    1
   170    97    96    2
   171   122   123    2
   172    58    60    1
   173    98   100    1
   174    98    99    1
   175    98    95    1
   176    96    95    1
   177    99   101    1
   178    94    95    1
