@<TRIPOS>MOLECULE
tmp/1pmeA00.pdb
 163 152 0 0 0
SMALL
GASTEIGER

@<TRIPOS>ATOM
      1  N        -18.8440   20.9840   38.7540 N.3    16  ILE16      -0.1245
      2  CA       -18.4120   20.4650   40.0490 C.3    16  ILE16       0.1561
      3  C        -17.0910   21.0940   40.4820 C.2    16  ILE16       0.2260
      4  O        -17.0450   21.7930   41.5020 O.2    16  ILE16      -0.2867
      5  CB       -18.2850   18.9130   40.0590 C.3    16  ILE16       0.0252
      6  CG1      -19.6780   18.2720   40.0460 C.3    16  ILE16       0.0019
      7  CG2      -17.5010   18.4360   41.3000 C.3    16  ILE16       0.0019
      8  CD1      -19.6430   16.7490   39.9930 C.3    16  ILE16       0.0001
      9  N        -14.3800   18.8830   36.1310 N.3    21  VAL21      -0.1245
     10  CA       -15.2160   17.7510   36.5180 C.3    21  VAL21       0.1561
     11  C        -16.6460   18.2640   36.5320 C.2    21  VAL21       0.2260
     12  O        -16.9100   19.3520   37.0470 O.2    21  VAL21      -0.2867
     13  CB       -14.8630   17.2160   37.9200 C.3    21  VAL21       0.0252
     14  CG1      -15.8170   16.0980   38.3100 C.3    21  VAL21       0.0019
     15  CG2      -13.4300   16.7110   37.9340 C.3    21  VAL21       0.0019
     16  N        -20.4760   11.2210   36.6290 N.3    34  ALA34      -0.1231
     17  CA       -19.5020   12.2900   36.7970 C.3    34  ALA34       0.1694
     18  C        -18.4790   12.1340   35.6840 C.2    34  ALA34       0.2592
     19  O        -17.9820   11.0340   35.4320 O.2    34  ALA34      -0.2718
     20  CB       -18.8140   12.1710   38.1400 C.3    34  ALA34       0.0304
     21  N        -18.1920   13.2330   35.0000 N.am   35  ILE35      -0.1966
     22  CA       -17.2500   13.2330   33.8840 C.3    35  ILE35       0.1727
     23  C        -16.1250   14.2270   34.1210 C.2    35  ILE35       0.2616
     24  O        -16.3620   15.3590   34.5410 O.2    35  ILE35      -0.2715
     25  CB       -17.9630   13.6110   32.5600 C.3    35  ILE35       0.0290
     26  CG1      -19.1940   12.7190   32.3670 C.3    35  ILE35       0.0022
     27  CG2      -16.9990   13.4830   31.3700 C.3    35  ILE35       0.0023
     28  CD1      -20.0440   13.1180   31.1850 C.3    35  ILE35       0.0001
     29  N        -14.9020   13.8090   33.8240 N.am   36  LYS36      -0.1977
     30  CA       -13.7560   14.6870   33.9930 C.3    36  LYS36       0.1596
     31  C        -13.0660   14.9450   32.6610 C.2    36  LYS36       0.2287
     32  O        -12.6980   14.0080   31.9620 O.2    36  LYS36      -0.2864
     33  CB       -12.7510   14.0860   34.9800 C.3    36  LYS36       0.0298
     34  CG       -11.5310   14.9650   35.2090 C.3    36  LYS36       0.0038
     35  CD       -10.5390   14.2780   36.1050 C.3    36  LYS36       0.0206
     36  CE       -10.0090   13.0090   35.4680 C.3    36  LYS36       0.1093
     37  NZ        -8.9160   12.4220   36.2770 N.3    36  LYS36      -0.1314
     38  N         -2.6000    7.3040   35.1600 N.3    53  GLU53      -0.1245
     39  CA        -3.8960    7.1460   35.8130 C.3    53  GLU53       0.1567
     40  C         -4.8690    6.3110   35.0060 C.2    53  GLU53       0.2260
     41  O         -5.5530    5.4480   35.5540 O.2    53  GLU53      -0.2867
     42  CB        -4.5370    8.4930   36.1190 C.3    53  GLU53       0.0388
     43  CG        -5.9590    8.3480   36.6280 C.3    53  GLU53       0.1160
     44  CD        -6.5200    9.6260   37.1490 C.2    53  GLU53       0.3649
     45  OE1       -7.1010   10.3850   36.3530 O.co2  53  GLU53      -0.2457
     46  OE2       -6.3610    9.8790   38.3570 O.co2  53  GLU53      -0.2457
     47  N         -6.4570    2.8840   36.4910 N.3    57  LEU57      -0.1245
     48  CA        -7.8970    2.8000   36.6890 C.3    57  LEU57       0.1561
     49  C         -8.6110    1.7750   35.8130 C.2    57  LEU57       0.2260
     50  O         -9.6090    1.2040   36.2450 O.2    57  LEU57      -0.2867
     51  CB        -8.5540    4.1720   36.5310 C.3    57  LEU57       0.0270
     52  CG        -8.2390    5.2290   37.5940 C.3    57  LEU57       0.0019
     53  CD1       -8.9580    6.5160   37.2610 C.3    57  LEU57       0.0001
     54  CD2       -8.6530    4.7350   38.9830 C.3    57  LEU57       0.0001
     55  N        -12.5320    4.2610   42.1970 N.3    66  ILE66      -0.1245
     56  CA       -13.2820    4.7570   41.0500 C.3    66  ILE66       0.1561
     57  C        -12.9540    3.9750   39.7660 C.2    66  ILE66       0.2260
     58  O        -11.7900    3.8610   39.3700 O.2    66  ILE66      -0.2867
     59  CB       -13.0410    6.2810   40.8540 C.3    66  ILE66       0.0252
     60  CG1      -14.3490    7.0340   41.0540 C.3    66  ILE66       0.0019
     61  CG2      -12.4100    6.6050   39.5030 C.3    66  ILE66       0.0019
     62  CD1      -14.6410    7.3540   42.4950 C.3    66  ILE66       0.0001
     63  N        -13.6120    3.2550   35.5750 N.3    68  ILE68      -0.1245
     64  CA       -13.9760    4.0060   34.3810 C.3    68  ILE68       0.1561
     65  C        -15.0060    3.2770   33.5160 C.2    68  ILE68       0.2260
     66  O        -14.7340    2.2300   32.9250 O.2    68  ILE68      -0.2867
     67  CB       -12.7290    4.4140   33.5750 C.3    68  ILE68       0.0252
     68  CG1      -11.8440    5.2960   34.4530 C.3    68  ILE68       0.0019
     69  CG2      -13.1380    5.1950   32.3370 C.3    68  ILE68       0.0019
     70  CD1      -10.5890    5.7790   33.7770 C.3    68  ILE68       0.0001
     71  N        -13.1800   11.2860   30.9860 N.3    85  LEU85      -0.1231
     72  CA       -13.3150   10.0300   31.7290 C.3    85  LEU85       0.1693
     73  C        -14.6810   10.0620   32.4020 C.2    85  LEU85       0.2592
     74  O        -15.0830   11.0920   32.9420 O.2    85  LEU85      -0.2718
     75  CB       -12.2120    9.8930   32.7920 C.3    85  LEU85       0.0284
     76  CG       -10.7310   10.0370   32.3700 C.3    85  LEU85       0.0019
     77  CD1       -9.8260    9.7580   33.5740 C.3    85  LEU85       0.0001
     78  CD2      -10.4130    9.0760   31.2430 C.3    85  LEU85       0.0001
     79  N        -15.3880    8.9380   32.3790 N.am   86  VAL86      -0.1966
     80  CA       -16.7200    8.8740   32.9770 C.3    86  VAL86       0.1727
     81  C        -16.8230    7.7830   34.0360 C.2    86  VAL86       0.2617
     82  O        -16.3170    6.6780   33.8460 O.2    86  VAL86      -0.2715
     83  CB       -17.8200    8.5880   31.8890 C.3    86  VAL86       0.0290
     84  CG1      -19.2150    8.6350   32.5090 C.3    86  VAL86       0.0023
     85  CG2      -17.7150    9.5830   30.7420 C.3    86  VAL86       0.0023
     86  N        -17.4990    8.0910   35.1400 N.am   87  THR87      -0.1937
     87  CA       -17.6930    7.1280   36.2200 C.3    87  THR87       0.2028
     88  C        -18.9840    7.4510   36.9850 C.2    87  THR87       0.2642
     89  O        -19.5800    8.5090   36.7790 O.2    87  THR87      -0.2714
     90  CB       -16.4850    7.1110   37.2000 C.3    87  THR87       0.1808
     91  OG1      -16.6360    6.0320   38.1270 O.3    87  THR87      -0.2208
     92  CG2      -16.4050    8.4090   37.9800 C.3    87  THR87       0.0379
     93  N        -19.4210    6.5450   37.8580 N.am   88  HIS88      -0.1959
     94  CA       -20.6580    6.7630   38.6200 C.3    88  HIS88       0.1787
     95  C        -20.5440    7.9730   39.5460 C.2    88  HIS88       0.2620
     96  O        -19.5020    8.1930   40.1650 O.2    88  HIS88      -0.2715
     97  CB       -21.0200    5.5180   39.4320 C.3    88  HIS88       0.0785
     98  CG       -21.1840    4.2800   38.6060 C.ar   88  HIS88       0.0821
     99  ND1      -22.0310    4.2120   37.5190 N.ar   88  HIS88      -0.2267
    100  CD2      -20.6140    3.0560   38.7150 C.ar   88  HIS88       0.1154
    101  CE1      -21.9820    2.9980   37.0000 C.ar   88  HIS88       0.1986
    102  NE2      -21.1290    2.2780   37.7060 N.ar   88  HIS88      -0.2212
    103  N        -21.6150    8.7540   39.6470 N.am   89  LEU89      -0.1963
    104  CA       -21.5900    9.9400   40.4910 C.3    89  LEU89       0.1728
    105  C        -21.4840    9.6420   41.9810 C.2    89  LEU89       0.2616
    106  O        -22.1160    8.7270   42.5030 O.2    89  LEU89      -0.2715
    107  CB       -22.8100   10.8360   40.2280 C.3    89  LEU89       0.0311
    108  CG       -22.8660   12.1990   40.9350 C.3    89  LEU89       0.0022
    109  CD1      -21.7920   13.1440   40.4040 C.3    89  LEU89       0.0001
    110  CD2      -24.2380   12.8100   40.7240 C.3    89  LEU89       0.0001
    111  N        -20.6120   10.3980   42.6330 N.am   90  MET90      -0.1977
    112  CA       -20.3950   10.3200   44.0680 C.3    90  MET90       0.1605
    113  C        -20.5590   11.7980   44.3960 C.2    90  MET90       0.2287
    114  O        -19.6750   12.5990   44.1030 O.2    90  MET90      -0.2864
    115  CB       -18.9670    9.8630   44.3900 C.3    90  MET90       0.0413
    116  CG       -18.5480    8.5160   43.8100 C.3    90  MET90       0.0598
    117  SD       -19.5020    7.1120   44.4120 S.3    90  MET90      -0.1393
    118  CE       -18.7830    6.8890   46.0560 C.3    90  MET90       0.0692
    119  N         -5.7060   11.7420   50.6980 N.3   133  LYS133     -0.1245
    120  CA        -6.1700   12.8600   51.5160 C.3   133  LYS133      0.1561
    121  C         -7.6940   12.8940   51.3880 C.2   133  LYS133      0.2260
    122  O         -8.2420   12.3020   50.4630 O.2   133  LYS133     -0.2867
    123  CB        -5.5710   14.1750   51.0090 C.3   133  LYS133      0.0271
    124  CG        -5.7830   14.3890   49.5410 C.3   133  LYS133      0.0035
    125  CD        -5.1150   15.6460   49.0430 C.3   133  LYS133      0.0206
    126  CE        -4.9070   15.5390   47.5570 C.3   133  LYS133      0.1093
    127  NZ        -4.5490   16.8440   46.9540 N.3   133  LYS133     -0.1314
    128  N         -9.9430   15.0090   50.1830 N.3   135  SER135     -0.1202
    129  CA       -10.5650   15.3910   48.9060 C.3   135  SER135      0.2020
    130  C        -10.5300   14.2900   47.8410 C.2   135  SER135      0.2618
    131  O        -11.2750   14.3480   46.8670 O.2   135  SER135     -0.2717
    132  CB        -9.9570   16.6770   48.3530 C.3   135  SER135      0.2103
    133  OG        -8.5770   16.5120   48.1050 O.3   135  SER135     -0.2182
    134  N         -9.6740   13.2900   48.0550 N.am  136  ASN136     -0.1974
    135  CA        -9.5060   12.1470   47.1490 C.3   136  ASN136      0.1688
    136  C        -10.4060   10.9820   47.4950 C.2   136  ASN136      0.2292
    137  O        -10.3860    9.9610   46.8120 O.2   136  ASN136     -0.2864
    138  CB        -8.0710   11.6210   47.2180 C.3   136  ASN136      0.1181
    139  CG        -7.1150   12.4030   46.3700 C.2   136  ASN136      0.2629
    140  OD1       -7.5190   13.1900   45.5180 O.2   136  ASN136     -0.2716
    141  ND2       -5.8350   12.1890   46.5890 N.am  136  ASN136     -0.0877
    142  N        -14.0100    9.9450   47.7810 N.3   138  LEU138     -0.1245
    143  CA       -15.3730   10.3200   47.4010 C.3   138  LEU138      0.1561
    144  C        -16.4330    9.5020   48.1190 C.2   138  LEU138      0.2260
    145  O        -16.2370    8.3220   48.4110 O.2   138  LEU138     -0.2867
    146  CB       -15.5500   10.2230   45.8800 C.3   138  LEU138      0.0270
    147  CG       -14.4480   10.9600   45.0960 C.3   138  LEU138      0.0019
    148  CD1      -14.5890   10.7500   43.6130 C.3   138  LEU138      0.0001
    149  CD2      -14.4900   12.4330   45.4050 C.3   138  LEU138      0.0001
    150  N         -9.9180    7.9990   44.5180 N.3   147  CYS147     -0.1221
    151  CA        -9.6560    8.4850   43.1650 C.3   147  CYS147      0.1808
    152  C         -8.3520    9.2740   43.1420 C.2   147  CYS147      0.2601
    153  O         -7.6040    9.2610   44.1250 O.2   147  CYS147     -0.2717
    154  CB       -10.8100    9.3720   42.6600 C.3   147  CYS147      0.0970
    155  SG       -10.9140   11.0460   43.3570 S.3   147  CYS147     -0.0800
    156  N         -8.0670    9.9170   42.0170 N.am  148  ASP148     -0.1973
    157  CA        -6.8660   10.7360   41.8570 C.3   148  ASP148      0.1709
    158  C         -5.5500    9.9580   41.9310 C.2   148  ASP148      0.2293
    159  O         -4.7690   10.0930   42.8750 O.2   148  ASP148     -0.2864
    160  CB        -6.8700   11.8790   42.8840 C.3   148  ASP148      0.1436
    161  CG        -5.8040   12.9250   42.6110 C.2   148  ASP148      0.3671
    162  OD1       -5.4340   13.0980   41.4370 O.co2 148  ASP148     -0.2456
    163  OD2       -5.3380   13.5820   43.5670 O.co2 148  ASP148     -0.2456
@<TRIPOS>BOND
     1    85    83    1
     2    71    72    1
     3    28    26    1
     4    78    76    1
     5    27    25    1
     6    72    73    1
     7    72    75    1
     8    83    84    1
     9    83    80    1
    10    32    31    2
    11    69    67    1
    12    26    25    1
    13    76    75    1
    14    76    77    1
    15    79    73   am
    16    79    80    1
    17    73    74    2
    18    25    22    1
    19    31    30    1
    20    66    65    2
    21    80    81    1
    22    65    64    1
    23    67    64    1
    24    67    68    1
    25    70    68    1
    26    29    30    1
    27    29    23   am
    28    82    81    2
    29    22    23    1
    30    22    21    1
    31    30    33    1
    32    81    86   am
    33    23    24    2
    34    64    63    1
    35    33    34    1
    36    21    18   am
    37    40    41    2
    38    40    39    1
    39    86    87    1
    40    38    39    1
    41    34    35    1
    42    19    18    2
    43    36    35    1
    44    36    37    1
    45    18    17    1
    46    39    42    1
    47    49    50    2
    48    49    48    1
    49    42    43    1
    50     9    10    1
    51    87    88    1
    52    87    90    1
    53    45    44   ar
    54    47    48    1
    55    10    11    1
    56    10    13    1
    57    51    48    1
    58    51    52    1
    59    11    12    2
    60    43    44    1
    61    16    17    1
    62    89    88    2
    63    17    20    1
    64    88    93   am
    65   101    99   ar
    66   101   102   ar
    67    44    46   ar
    68    90    92    1
    69    90    91    1
    70    53    52    1
    71    99    98   ar
    72    52    54    1
    73   102   100   ar
    74    93    94    1
    75    13    15    1
    76    13    14    1
    77    98   100   ar
    78    98    97    1
    79    94    97    1
    80    94    95    1
    81     1     2    1
    82    58    57    2
    83    61    59    1
    84    95   103   am
    85    95    96    2
    86   103   104    1
    87    57    56    1
    88     8     6    1
    89     6     5    1
    90     2     5    1
    91     2     3    1
    92     5     7    1
    93   107   104    1
    94   107   108    1
    95   109   108    1
    96     3     4    2
    97   104   105    1
    98   110   108    1
    99    59    56    1
   100    59    60    1
   101    56    55    1
   102    60    62    1
   103   162   161   ar
   104   157   158    1
   105   157   156    1
   106   157   160    1
   107   158   159    2
   108   105   106    2
   109   105   111   am
   110   156   152   am
   111   161   160    1
   112   161   163   ar
   113   111   112    1
   114   154   151    1
   115   154   155    1
   116   152   151    1
   117   152   153    2
   118   151   150    1
   119   148   147    1
   120   116   115    1
   121   116   117    1
   122   112   115    1
   123   112   113    1
   124   114   113    2
   125   117   118    1
   126   147   149    1
   127   147   146    1
   128   140   139    2
   129   146   143    1
   130   139   141   am
   131   139   138    1
   132   137   136    2
   133   131   130    2
   134   127   126    1
   135   135   138    1
   136   135   136    1
   137   135   134    1
   138   143   142    1
   139   143   144    1
   140   126   125    1
   141   130   134   am
   142   130   129    1
   143   133   132    1
   144   144   145    2
   145   132   129    1
   146   129   128    1
   147   125   124    1
   148   124   123    1
   149   122   121    2
   150   119   120    1
   151   123   120    1
   152   121   120    1
