@<TRIPOS>MOLECULE
tmp/1pmhA00.pdb
 138 134 0 0 0
SMALL
GASTEIGER

@<TRIPOS>ATOM
      1  N         12.7420   35.6330   26.7860 N.3    19  ALA19      -0.1231
      2  CA        11.6180   36.5710   26.8500 C.3    19  ALA19       0.1694
      3  C         11.3740   37.0550   28.2660 C.2    19  ALA19       0.2592
      4  O         10.8030   38.1200   28.4620 O.2    19  ALA19      -0.2718
      5  CB        10.3530   35.9820   26.2320 C.3    19  ALA19       0.0304
      6  N         11.7510   36.2330   29.2430 N.am   20  TRP20      -0.1976
      7  CA        11.7150   36.5630   30.6540 C.3    20  TRP20       0.1640
      8  C         12.6670   35.5740   31.3110 C.2    20  TRP20       0.2290
      9  O         13.2140   34.6990   30.6690 O.2    20  TRP20      -0.2864
     10  CB        10.2890   36.5090   31.2280 C.3    20  TRP20       0.0576
     11  CG         9.5860   35.2300   30.9470 C.ar   20  TRP20       0.0006
     12  CD1        9.7140   34.0730   31.6280 C.ar   20  TRP20       0.0946
     13  CD2        8.6650   34.9730   29.8880 C.ar   20  TRP20       0.0152
     14  NE1        8.9380   33.0980   31.0520 N.ar   20  TRP20      -0.2442
     15  CE2        8.2950   33.6220   29.9640 C.ar   20  TRP20       0.0810
     16  CE3        8.1310   35.7460   28.8510 C.ar   20  TRP20       0.0012
     17  CZ2        7.4500   33.0220   29.0250 C.ar   20  TRP20       0.0191
     18  CZ3        7.2920   35.1610   27.9610 C.ar   20  TRP20       0.0001
     19  CH2        6.9630   33.8290   28.0310 C.ar   20  TRP20       0.0015
     20  N          4.3990   16.0910   26.0870 N.3    56  GLY56      -0.1210
     21  CA         3.5540   16.5060   24.9920 C.3    56  GLY56       0.1956
     22  C          3.5450   17.9910   24.7400 C.2    56  GLY56       0.2611
     23  O          2.9200   18.4110   23.7760 O.2    56  GLY56      -0.2717
     24  N          4.1840   18.7640   25.6170 N.am   57  TRP57      -0.1976
     25  CA         4.2710   20.2250   25.4240 C.3    57  TRP57       0.1640
     26  C          5.5540   20.7350   26.0920 C.2    57  TRP57       0.2290
     27  O          5.5220   21.3350   27.1660 O.2    57  TRP57      -0.2864
     28  CB         3.0060   20.9080   25.9550 C.3    57  TRP57       0.0576
     29  CG         2.9240   22.3060   25.4500 C.ar   57  TRP57       0.0006
     30  CD1        3.3240   23.4080   26.1230 C.ar   57  TRP57       0.0946
     31  CD2        2.4960   22.7500   24.1700 C.ar   57  TRP57       0.0152
     32  NE1        3.1460   24.5260   25.3460 N.ar   57  TRP57      -0.2442
     33  CE2        2.6480   24.1510   24.1330 C.ar   57  TRP57       0.0810
     34  CE3        1.9510   22.1100   23.0560 C.ar   57  TRP57       0.0012
     35  CZ2        2.2630   24.9170   23.0280 C.ar   57  TRP57       0.0191
     36  CZ3        1.5890   22.8570   21.9860 C.ar   57  TRP57       0.0001
     37  CH2        1.7570   24.2370   21.9670 C.ar   57  TRP57       0.0015
     38  N          7.9600   23.2610   26.2620 N.3    59  GLN59      -0.1245
     39  CA         7.8770   24.6370   25.8110 C.3    59  GLN59       0.1566
     40  C          9.1300   25.4480   26.1090 C.2    59  GLN59       0.2260
     41  O          9.7910   25.2550   27.1330 O.2    59  GLN59      -0.2867
     42  CB         6.6760   25.2950   26.5280 C.3    59  GLN59       0.0367
     43  CG         6.3000   26.6950   26.0810 C.3    59  GLN59       0.0905
     44  CD         5.1580   27.2600   26.8780 C.2    59  GLN59       0.2608
     45  OE1        4.0960   26.6190   27.0250 O.2    59  GLN59      -0.2717
     46  NE2        5.3130   28.4590   27.3980 N.am   59  GLN59      -0.0878
     47  N          4.2920   29.2230   18.2030 N.3   102  LYS102     -0.1245
     48  CA         3.4010   30.3790   18.2530 C.3   102  LYS102      0.1561
     49  C          4.2200   31.6380   18.0280 C.2   102  LYS102      0.2260
     50  O          5.3610   31.7130   18.4440 O.2   102  LYS102     -0.2867
     51  CB         2.6570   30.4840   19.5710 C.3   102  LYS102      0.0271
     52  CG         1.9150   29.2460   20.0060 C.3   102  LYS102      0.0035
     53  CD         1.0050   29.4770   21.1940 C.3   102  LYS102      0.0206
     54  CE         0.1030   28.2800   21.4920 C.3   102  LYS102      0.1093
     55  NZ        -0.7990   28.5960   22.6500 N.3   102  LYS102     -0.1314
     56  N          3.7510   40.2230   22.9680 N.3   106  ASN106     -0.1240
     57  CA         3.5640   40.0880   24.4070 C.3   106  ASN106      0.1653
     58  C          3.1020   41.3580   25.0860 C.2   106  ASN106      0.2266
     59  O          3.7710   41.9130   25.9230 O.2   106  ASN106     -0.2867
     60  CB         4.8170   39.4720   25.0330 C.3   106  ASN106      0.1155
     61  CG         4.5970   38.9970   26.4510 C.2   106  ASN106      0.2627
     62  OD1        3.4410   38.7850   26.8670 O.2   106  ASN106     -0.2716
     63  ND2        5.7080   38.8050   27.1850 N.am  106  ASN106     -0.0877
     64  N         -0.2560   41.7310   26.9900 N.3   108  GLY108     -0.1210
     65  CA        -1.2790   40.8210   27.4590 C.3   108  GLY108      0.1956
     66  C         -1.2290   39.4520   26.8130 C.2   108  GLY108      0.2611
     67  O         -2.2110   38.7080   26.9340 O.2   108  GLY108     -0.2717
     68  N         -0.1120   39.0950   26.1730 N.am  109  TRP109     -0.1976
     69  CA         0.0840   37.8230   25.4610 C.3   109  TRP109      0.1640
     70  C         -0.9690   37.6500   24.3640 C.2   109  TRP109      0.2290
     71  O         -1.9890   36.9950   24.5220 O.2   109  TRP109     -0.2864
     72  CB         0.1010   36.6240   26.4030 C.3   109  TRP109      0.0576
     73  CG         0.4780   35.3350   25.7140 C.ar  109  TRP109      0.0006
     74  CD1       -0.3840   34.3810   25.2040 C.ar  109  TRP109      0.0946
     75  CD2        1.7750   34.8480   25.5000 C.ar  109  TRP109      0.0152
     76  NE1        0.3120   33.3320   24.6480 N.ar  109  TRP109     -0.2442
     77  CE2        1.6390   33.5820   24.8580 C.ar  109  TRP109      0.0810
     78  CE3        3.0440   35.3320   25.8340 C.ar  109  TRP109      0.0012
     79  CZ2        2.7590   32.8090   24.5220 C.ar  109  TRP109      0.0191
     80  CZ3        4.1440   34.5510   25.4730 C.ar  109  TRP109      0.0001
     81  CH2        3.9600   33.3320   24.8380 C.ar  109  TRP109      0.0015
     82  N         -1.5840   36.1570   20.8250 N.3   111  GLU111     -0.1245
     83  CA        -1.1570   35.2400   19.8000 C.3   111  GLU111      0.1567
     84  C         -1.5940   35.7620   18.4440 C.2   111  GLU111      0.2260
     85  O         -2.7690   36.0310   18.2220 O.2   111  GLU111     -0.2867
     86  CB        -1.7040   33.8360   20.0450 C.3   111  GLU111      0.0388
     87  CG        -1.2470   33.3090   21.3990 C.3   111  GLU111      0.1160
     88  CD        -1.6420   31.9090   21.7960 C.2   111  GLU111      0.3649
     89  OE1       -2.0900   31.2020   20.9060 O.co2 111  GLU111     -0.2457
     90  OE2       -1.4160   31.5200   22.9560 O.co2 111  GLU111     -0.2457
     91  N          0.5670   23.5190   14.9930 N.3   116  PHE116     -0.1227
     92  CA         0.7910   22.3410   15.8000 C.3   116  PHE116      0.1736
     93  C          1.2590   21.1790   14.9430 C.2   116  PHE116      0.2595
     94  O          0.9840   21.1190   13.7630 O.2   116  PHE116     -0.2718
     95  CB        -0.5150   21.9440   16.5260 C.3   116  PHE116      0.0547
     96  CG        -0.9750   22.9950   17.4740 C.ar  116  PHE116     -0.0202
     97  CD1       -1.7180   24.0960   17.0400 C.ar  116  PHE116     -0.0042
     98  CD2       -0.7020   22.8690   18.8080 C.ar  116  PHE116     -0.0042
     99  CE1       -2.0940   25.0500   17.9550 C.ar  116  PHE116     -0.0003
    100  CE2       -1.0990   23.8120   19.7100 C.ar  116  PHE116     -0.0003
    101  CZ        -1.7580   24.9320   19.2900 C.ar  116  PHE116     -0.0000
    102  N          1.9570   20.2500   15.5890 N.am  117  ASN117     -0.1974
    103  CA         2.3470   18.9850   14.9680 C.3   117  ASN117      0.1688
    104  C          3.1640   19.1570   13.7030 C.2   117  ASN117      0.2292
    105  O          2.9310   18.4610   12.7040 O.2   117  ASN117     -0.2864
    106  CB         1.1170   18.1160   14.7260 C.3   117  ASN117      0.1181
    107  CG         0.3950   17.8170   16.0030 C.2   117  ASN117      0.2629
    108  OD1       -0.7210   18.2620   16.1900 O.2   117  ASN117     -0.2716
    109  ND2        1.0850   17.1580   16.9300 N.am  117  ASN117     -0.0877
    110  N          3.1220   47.0630   23.8940 N.3   151  ARG151     -0.1245
    111  CA         4.3670   46.5910   24.4560 C.3   151  ARG151      0.1563
    112  C          5.1530   45.8350   23.3850 C.2   151  ARG151      0.2260
    113  O          4.6400   44.9070   22.7810 O.2   151  ARG151     -0.2867
    114  CB         4.0590   45.6850   25.6390 C.3   151  ARG151      0.0307
    115  CG         5.2110   45.2780   26.4810 C.3   151  ARG151      0.0489
    116  CD         4.7080   44.6230   27.7650 C.3   151  ARG151      0.2205
    117  NE         5.7790   44.1920   28.6550 N.pl3 151  ARG151     -0.0865
    118  CZ         6.3730   43.0220   28.5780 C.cat 151  ARG151      0.5346
    119  NH1        6.0530   42.1340   27.6500 N.pl3 151  ARG151      0.1354
    120  NH2        7.3420   42.7490   29.4430 N.pl3 151  ARG151      0.1354
    121  N          7.3080   31.1160   20.5380 N.3   157  GLN157     -0.1245
    122  CA         7.2180   29.9840   21.4110 C.3   157  GLN157      0.1566
    123  C          7.4200   28.7190   20.5900 C.2   157  GLN157      0.2260
    124  O          6.8590   28.5960   19.5280 O.2   157  GLN157     -0.2867
    125  CB         5.8810   29.9540   22.1230 C.3   157  GLN157      0.0367
    126  CG         5.7600   28.7880   23.0900 C.3   157  GLN157      0.0905
    127  CD         4.4460   28.8660   23.8350 C.2   157  GLN157      0.2608
    128  OE1        3.4920   28.1310   23.5170 O.2   157  GLN157     -0.2717
    129  NE2        4.3620   29.7410   24.8040 N.am  157  GLN157     -0.0878
    130  N          6.2420   18.2840   20.9570 N.3   161  GLN161     -0.1245
    131  CA         5.0260   17.4780   21.1680 C.3   161  GLN161      0.1566
    132  C          5.4190   16.0200   21.0100 C.2   161  GLN161      0.2260
    133  O          5.4200   15.4350   19.9430 O.2   161  GLN161     -0.2867
    134  CB         3.9230   17.8700   20.1930 C.3   161  GLN161      0.0367
    135  CG         3.3860   19.2840   20.3730 C.3   161  GLN161      0.0905
    136  CD         2.2980   19.6260   19.4180 C.2   161  GLN161      0.2608
    137  OE1        2.6150   20.0220   18.2840 O.2   161  GLN161     -0.2717
    138  NE2        1.0760   19.4560   19.7960 N.am  161  GLN161     -0.0878
@<TRIPOS>BOND
     1   105   104    2
     2   104   103    1
     3    94    93    2
     4   106   103    1
     5   106   107    1
     6    93   102   am
     7    93    92    1
     8   103   102    1
     9    91    92    1
    10    92    95    1
    11   107   108    2
    12   107   109   am
    13    95    96    1
    14    97    96   ar
    15    97    99   ar
    16    96    98   ar
    17    99   101   ar
    18    49    48    1
    19    49    50    2
    20    47    48    1
    21    85    84    2
    22    48    51    1
    23   137   136    2
    24    84    83    1
    25    98   100   ar
    26   101   100   ar
    27   136   138   am
    28   136   135    1
    29   124   123    2
    30    51    52    1
    31    83    86    1
    32    83    82    1
    33   133   132    2
    34    52    53    1
    35    86    87    1
    36   134   135    1
    37   134   131    1
    38   121   122    1
    39   123   122    1
    40    89    88   ar
    41   130   131    1
    42   132   131    1
    43    53    54    1
    44    87    88    1
    45   122   125    1
    46    54    55    1
    47    88    90   ar
    48    37    36   ar
    49    37    35   ar
    50    36    34   ar
    51   125   126    1
    52   113   112    2
    53    56    57    1
    54    35    33   ar
    55    34    31   ar
    56   126   127    1
    57   112   111    1
    58   128   127    2
    59    23    22    2
    60   127   129   am
    61   110   111    1
    62    33    31   ar
    63    33    32   ar
    64    31    29   ar
    65    70    71    2
    66    70    69    1
    67    57    60    1
    68    57    58    1
    69   111   114    1
    70    79    81   ar
    71    79    77   ar
    72    76    77   ar
    73    76    74   ar
    74    22    21    1
    75    22    24   am
    76    81    80   ar
    77    77    75   ar
    78    21    20    1
    79    60    61    1
    80    58    59    2
    81    74    73   ar
    82    32    30   ar
    83    25    24    1
    84    25    28    1
    85    25    26    1
    86    29    28    1
    87    29    30   ar
    88    69    68    1
    89    69    72    1
    90    80    78   ar
    91    75    73   ar
    92    75    78   ar
    93   114   115    1
    94    73    72    1
    95    39    40    1
    96    39    38    1
    97    39    42    1
    98    43    42    1
    99    43    44    1
   100    26    27    2
   101    40    41    2
   102    68    66   am
   103     5     2    1
   104    61    62    2
   105    61    63   am
   106   115   116    1
   107     1     2    1
   108    66    67    2
   109    66    65    1
   110     2     3    1
   111    44    45    2
   112    44    46   am
   113    64    65    1
   114   119   118    1
   115   116   117    1
   116    18    19   ar
   117    18    16   ar
   118    19    17   ar
   119     3     4    2
   120     3     6   am
   121   118   117    2
   122   118   120    1
   123    16    13   ar
   124    17    15   ar
   125     6     7    1
   126    13    15   ar
   127    13    11   ar
   128    15    14   ar
   129     7    10    1
   130     7     8    1
   131     9     8    2
   132    11    10    1
   133    11    12   ar
   134    14    12   ar
