@<TRIPOS>MOLECULE
tmp/1pmnA00.pdb
 192 180 0 0 0
SMALL
GASTEIGER

@<TRIPOS>ATOM
      1  N         29.1300    7.9370   35.7510 N.3    26  ILE26      -0.1231
      2  CA        28.8310    7.3830   34.4360 C.3    26  ILE26       0.1692
      3  C         28.7330    8.4790   33.4030 C.2    26  ILE26       0.2593
      4  O         28.6220    8.2090   32.2100 O.2    26  ILE26      -0.2718
      5  CB        27.5050    6.5680   34.4150 C.3    26  ILE26       0.0266
      6  CG1       26.3110    7.4690   34.7340 C.3    26  ILE26       0.0019
      7  CG2       27.5610    5.4380   35.4370 C.3    26  ILE26       0.0020
      8  CD1       24.9780    6.7040   34.7730 C.3    26  ILE26       0.0001
      9  N         28.7720    9.7210   33.8560 N.am   27  GLY27      -0.1942
     10  CA        28.6870   10.8340   32.9300 C.3    27  GLY27       0.2014
     11  C         28.7350   12.1970   33.6020 C.2    27  GLY27       0.2640
     12  O         28.3650   12.3550   34.7730 O.2    27  GLY27      -0.2714
     13  N         29.1930   13.1930   32.8530 N.am   28  SER28      -0.1935
     14  CA        29.2790   14.5460   33.3740 C.3    28  SER28       0.2055
     15  C         28.9600   15.5230   32.2530 C.2    28  SER28       0.2644
     16  O         28.8440   15.1470   31.0790 O.2    28  SER28      -0.2714
     17  CB        30.6810   14.8360   33.9360 C.3    28  SER28       0.2130
     18  OG        31.6400   14.8800   32.8920 O.3    28  SER28      -0.2179
     19  N         28.8210   16.7840   32.6280 N.am   29  GLY29      -0.1939
     20  CA        28.5000   17.8040   31.6560 C.3    29  GLY29       0.2014
     21  C         28.5460   19.1700   32.3090 C.2    29  GLY29       0.2639
     22  O         28.8640   19.3060   33.5080 O.2    29  GLY29      -0.2714
     23  N         28.2100   20.1860   31.5220 N.am   30  ALA30      -0.1963
     24  CA        28.2300   21.5560   32.0040 C.3    30  ALA30       0.1728
     25  C         27.0370   21.8990   32.9110 C.2    30  ALA30       0.2616
     26  O         26.9870   22.9940   33.4770 O.2    30  ALA30      -0.2715
     27  CB        28.2930   22.5300   30.8070 C.3    30  ALA30       0.0334
     28  N         26.0830   20.9750   33.0470 N.am   31  GLN31      -0.1963
     29  CA        24.9070   21.2150   33.8890 C.3    31  GLN31       0.1736
     30  C         24.9250   20.2920   35.1040 C.2    31  GLN31       0.2655
     31  O         24.1770   20.4910   36.0460 O.2    31  GLN31      -0.2711
     32  CB        23.5950   20.9780   33.1120 C.3    31  GLN31       0.0408
     33  CG        23.5060   21.5720   31.6850 C.3    31  GLN31       0.0908
     34  CD        23.6440   23.0930   31.6240 C.2    31  GLN31       0.2608
     35  OE1       23.5790   23.7850   32.6430 O.2    31  GLN31      -0.2717
     36  NE2       23.8250   23.6180   30.4140 N.am   31  GLN31      -0.0878
     37  N         25.7650   19.2650   35.0760 N.am   32  GLY32      -0.1730
     38  CA        25.8250   18.3640   36.2150 C.2    32  GLY32       0.1340
     39  C         26.5720   17.0530   36.0080 C.2    32  GLY32       0.2521
     40  O         27.0160   16.7350   34.8940 O.2    32  GLY32      -0.2816
     41  N         26.4980   12.8160   36.5570 N.3    34  VAL34      -0.1245
     42  CA        25.5860   11.6950   36.7140 C.3    34  VAL34       0.1561
     43  C         26.2820   10.4490   37.2790 C.2    34  VAL34       0.2260
     44  O         27.4340   10.1610   36.9440 O.2    34  VAL34      -0.2867
     45  CB        24.9090   11.3330   35.3840 C.3    34  VAL34       0.0252
     46  CG1       23.9790   10.1500   35.6080 C.3    34  VAL34       0.0019
     47  CG2       24.1110   12.5330   34.8620 C.3    34  VAL34       0.0019
     48  N         19.6990    6.2690   38.2900 N.3    47  ALA47      -0.1245
     49  CA        20.7250    7.2380   37.9120 C.3    47  ALA47       0.1562
     50  C         20.3840    8.4510   38.7450 C.2    47  ALA47       0.2260
     51  O         19.1970    8.7700   38.9390 O.2    47  ALA47      -0.2867
     52  CB        20.6520    7.5910   36.4420 C.3    47  ALA47       0.0290
     53  N         21.5540   12.5570   39.2760 N.3    49  LYS49      -0.1245
     54  CA        22.2760   13.6860   38.7100 C.3    49  LYS49       0.1561
     55  C         22.3090   14.8290   39.7250 C.2    49  LYS49       0.2260
     56  O         21.2950   15.1660   40.3370 O.2    49  LYS49      -0.2867
     57  CB        21.5750   14.1140   37.4090 C.3    49  LYS49       0.0271
     58  CG        22.0000   15.4420   36.7630 C.3    49  LYS49       0.0035
     59  CD        21.1050   15.7470   35.5140 C.3    49  LYS49       0.0206
     60  CE        21.5730   16.9640   34.7360 C.3    49  LYS49       0.1093
     61  NZ        20.6160   17.3710   33.6530 N.3    49  LYS49      -0.1314
     62  N          8.9000   18.5310   33.8900 N.3    71  MET71      -0.1245
     63  CA         8.7840   17.1400   34.2400 C.3    71  MET71       0.1570
     64  C          7.4540   16.8100   34.8770 C.2    71  MET71       0.2261
     65  O          7.0800   15.6370   34.9610 O.2    71  MET71      -0.2867
     66  CB         9.9480   16.7170   35.1310 C.3    71  MET71       0.0387
     67  CG        10.9320   15.8230   34.3730 C.3    71  MET71       0.0595
     68  SD        12.6300   16.0730   34.9320 S.3    71  MET71      -0.1393
     69  CE        13.1840   17.4230   33.8760 C.3    71  MET71       0.0692
     70  N         11.5180   11.4270   29.9910 N.3    80  ILE80      -0.1245
     71  CA        12.0470   11.2690   31.3310 C.3    80  ILE80       0.1561
     72  C         10.9910   11.5320   32.3970 C.2    80  ILE80       0.2260
     73  O         10.1840   12.4500   32.2680 O.2    80  ILE80      -0.2867
     74  CB        13.2390   12.2460   31.5820 C.3    80  ILE80       0.0252
     75  CG1       13.7770   12.0650   32.9980 C.3    80  ILE80       0.0019
     76  CG2       12.8050   13.6840   31.3900 C.3    80  ILE80       0.0019
     77  CD1       14.8570   13.0720   33.3920 C.3    80  ILE80       0.0001
     78  N         10.8100   11.6130   36.8010 N.3    82  LEU82      -0.1245
     79  CA        11.5750   11.5190   38.0230 C.3    82  LEU82       0.1561
     80  C         11.0110   10.5270   39.0390 C.2    82  LEU82       0.2260
     81  O          9.7880   10.3660   39.1820 O.2    82  LEU82      -0.2867
     82  CB        11.6610   12.8930   38.6770 C.3    82  LEU82       0.0270
     83  CG        12.4000   13.9730   37.9040 C.3    82  LEU82       0.0019
     84  CD1       12.1030   15.2930   38.5630 C.3    82  LEU82       0.0001
     85  CD2       13.8880   13.7130   37.9130 C.3    82  LEU82       0.0001
     86  N         18.6850   14.8830   41.2910 N.3   100  LEU100     -0.1231
     87  CA        17.5700   14.3430   40.5290 C.3   100  LEU100      0.1693
     88  C         17.7760   12.8450   40.3590 C.2   100  LEU100      0.2592
     89  O         18.8850   12.3900   40.0930 O.2   100  LEU100     -0.2718
     90  CB        17.4620   15.0240   39.1430 C.3   100  LEU100      0.0284
     91  CG        17.2570   16.5470   39.1630 C.3   100  LEU100      0.0019
     92  CD1       17.2420   17.0950   37.7300 C.3   100  LEU100      0.0001
     93  CD2       15.9230   16.8740   39.8810 C.3   100  LEU100      0.0001
     94  N         16.6960   12.0800   40.4860 N.am  101  VAL101     -0.1966
     95  CA        16.7960   10.6290   40.3810 C.3   101  VAL101      0.1727
     96  C         15.8100   10.0260   39.3970 C.2   101  VAL101      0.2616
     97  O         14.6010   10.3580   39.3920 O.2   101  VAL101     -0.2715
     98  CB        16.5520    9.9610   41.7590 C.3   101  VAL101      0.0290
     99  CG1       16.8000    8.4580   41.6760 C.3   101  VAL101      0.0023
    100  CG2       17.4550   10.5670   42.7970 C.3   101  VAL101      0.0023
    101  N         16.3120    9.1240   38.5580 N.am  102  MET102     -0.1963
    102  CA        15.4430    8.4470   37.6020 C.3   102  MET102      0.1736
    103  C         15.9230    7.0240   37.4030 C.2   102  MET102      0.2616
    104  O         16.9840    6.6300   37.9060 O.2   102  MET102     -0.2715
    105  CB        15.4280    9.1620   36.2420 C.3   102  MET102      0.0427
    106  CG        16.6740    8.9660   35.4040 C.3   102  MET102      0.0599
    107  SD        16.4810    9.7520   33.7450 S.3   102  MET102     -0.1393
    108  CE        15.3570    8.5700   32.9760 C.3   102  MET102      0.0692
    109  N         15.1370    6.2580   36.6590 N.am  103  GLU103     -0.1963
    110  CA        15.4640    4.8760   36.3460 C.3   103  GLU103      0.1733
    111  C         16.7620    4.7630   35.5510 C.2   103  GLU103      0.2616
    112  O         16.9890    5.4880   34.5690 O.2   103  GLU103     -0.2715
    113  CB        14.2960    4.2480   35.5890 C.3   103  GLU103      0.0429
    114  CG        14.6210    3.5300   34.3310 C.3   103  GLU103      0.1163
    115  CD        13.4590    2.6720   33.8730 C.2   103  GLU103      0.3649
    116  OE1       12.2990    3.1530   33.9180 O.co2 103  GLU103     -0.2457
    117  OE2       13.7090    1.5180   33.4750 O.co2 103  GLU103     -0.2457
    118  N         17.6150    3.8430   35.9820 N.am  104  LEU104     -0.1963
    119  CA        18.8860    3.6640   35.3120 C.3   104  LEU104      0.1728
    120  C         18.7510    3.0180   33.9310 C.2   104  LEU104      0.2616
    121  O         18.2820    1.8900   33.7830 O.2   104  LEU104     -0.2715
    122  CB        19.8600    2.8360   36.1770 C.3   104  LEU104      0.0311
    123  CG        21.2280    2.5770   35.5250 C.3   104  LEU104      0.0022
    124  CD1       22.0190    3.8770   35.4770 C.3   104  LEU104      0.0001
    125  CD2       22.0040    1.5280   36.2960 C.3   104  LEU104      0.0001
    126  N         19.2110    3.7640   32.9370 N.am  105  MET105     -0.1963
    127  CA        19.2020    3.3280   31.5650 C.3   105  MET105      0.1736
    128  C         20.5970    2.7080   31.2530 C.2   105  MET105      0.2616
    129  O         21.5450    2.8760   32.0240 O.2   105  MET105     -0.2715
    130  CB        18.8580    4.5150   30.6640 C.3   105  MET105      0.0427
    131  CG        17.5420    5.1740   31.0430 C.3   105  MET105      0.0599
    132  SD        16.1820    4.0330   30.7140 S.3   105  MET105     -0.1393
    133  CE        16.1120    4.1920   28.9030 C.3   105  MET105      0.0692
    134  N         20.6930    1.9720   30.1460 N.am  106  ASP106     -0.1957
    135  CA        21.9170    1.2720   29.7780 C.3   106  ASP106      0.1840
    136  C         22.8890    1.9560   28.8610 C.2   106  ASP106      0.2622
    137  O         24.0880    1.6420   28.8920 O.2   106  ASP106     -0.2715
    138  CB        21.5750   -0.0920   29.1670 C.3   106  ASP106      0.1450
    139  CG        20.8140   -0.9890   30.1310 C.2   106  ASP106      0.3671
    140  OD1       21.2150   -1.0410   31.3070 O.co2 106  ASP106     -0.2456
    141  OD2       19.8260   -1.6430   29.7180 O.co2 106  ASP106     -0.2456
    142  N         22.3970    2.8680   28.0220 N.am  107  ALA107     -0.1963
    143  CA        23.2930    3.5270   27.0930 C.3   107  ALA107      0.1728
    144  C         22.6350    4.7380   26.4610 C.2   107  ALA107      0.2616
    145  O         21.4050    4.8700   26.4680 O.2   107  ALA107     -0.2715
    146  CB        23.7150    2.5130   26.0030 C.3   107  ALA107      0.0334
    147  N         23.4510    5.6470   25.9470 N.am  108  ASN108     -0.1972
    148  CA        22.8890    6.7990   25.2690 C.3   108  ASN108      0.1688
    149  C         22.8310    6.4890   23.7640 C.2   108  ASN108      0.2292
    150  O         23.3360    5.4580   23.3240 O.2   108  ASN108     -0.2864
    151  CB        23.6810    8.0720   25.5680 C.3   108  ASN108      0.1181
    152  CG        25.0500    8.0690   24.9430 C.2   108  ASN108      0.2629
    153  OD1       25.3520    7.2490   24.0660 O.2   108  ASN108     -0.2716
    154  ND2       25.8810    9.0080   25.3630 N.am  108  ASN108     -0.0877
    155  N         26.0670    5.8120   21.5040 N.3   111  GLN111     -0.1245
    156  CA        26.5880    4.4480   21.4860 C.3   111  GLN111      0.1566
    157  C         25.8340    3.5780   20.4810 C.2   111  GLN111      0.2260
    158  O         26.4240    2.7560   19.7890 O.2   111  GLN111     -0.2867
    159  CB        26.4820    3.8350   22.8850 C.3   111  GLN111      0.0367
    160  CG        27.3760    4.4930   23.9270 C.3   111  GLN111      0.0905
    161  CD        27.0660    4.0150   25.3580 C.2   111  GLN111      0.2608
    162  OE1       26.4510    4.7350   26.1440 O.2   111  GLN111     -0.2717
    163  NE2       27.4770    2.7950   25.6810 N.am  111  GLN111     -0.0878
    164  N         23.0180   12.7570   22.4620 N.3   149  SER149     -0.1202
    165  CA        23.5870   12.6450   23.7830 C.3   149  SER149      0.2020
    166  C         22.5120   12.7570   24.8690 C.2   149  SER149      0.2618
    167  O         22.7060   12.3030   26.0020 O.2   149  SER149     -0.2717
    168  CB        24.6810   13.6860   23.9640 C.3   149  SER149      0.2103
    169  OG        24.1560   14.9950   23.9610 O.3   149  SER149     -0.2182
    170  N         21.3750   13.3460   24.5120 N.am  150  ASN150     -0.1974
    171  CA        20.2550   13.5050   25.4300 C.3   150  ASN150      0.1688
    172  C         19.1740   12.4380   25.2830 C.2   150  ASN150      0.2292
    173  O         18.0640   12.6120   25.7760 O.2   150  ASN150     -0.2864
    174  CB        19.6190   14.8920   25.2670 C.3   150  ASN150      0.1181
    175  CG        20.4490   15.9840   25.9250 C.2   150  ASN150      0.2629
    176  OD1       20.9830   15.7790   27.0130 O.2   150  ASN150     -0.2716
    177  ND2       20.5600   17.1420   25.2700 N.am  150  ASN150     -0.0877
    178  N         18.4420    8.2690   25.8530 N.3   152  VAL152     -0.1245
    179  CA        18.9740    7.0370   26.4400 C.3   152  VAL152      0.1561
    180  C         18.1230    5.8410   26.0940 C.2   152  VAL152      0.2260
    181  O         16.9270    5.9620   25.7780 O.2   152  VAL152     -0.2867
    182  CB        19.0930    7.1150   27.9800 C.3   152  VAL152      0.0252
    183  CG1       20.3350    7.8820   28.3500 C.3   152  VAL152      0.0019
    184  CG2       17.8640    7.7840   28.5760 C.3   152  VAL152      0.0019
    185  N         15.5570   12.7610   27.4050 N.3   162  LEU162     -0.1245
    186  CA        15.8550   13.3170   28.7280 C.3   162  LEU162      0.1561
    187  C         15.6340   14.8080   29.0280 C.2   162  LEU162      0.2260
    188  O         15.5770   15.1930   30.1950 O.2   162  LEU162     -0.2867
    189  CB        17.3300   13.0110   29.0890 C.3   162  LEU162      0.0270
    190  CG        17.9500   11.6020   29.1020 C.3   162  LEU162      0.0019
    191  CD1       19.4790   11.7570   29.1080 C.3   162  LEU162      0.0001
    192  CD2       17.5180   10.8070   30.3220 C.3   162  LEU162      0.0001
@<TRIPOS>BOND
     1   158   157    2
     2   157   156    1
     3   156   155    1
     4   156   159    1
     5   164   165    1
     6   159   160    1
     7   150   149    2
     8   149   148    1
     9   165   168    1
    10   165   166    1
    11   160   161    1
    12   169   168    1
    13   153   152    2
    14   170   166   am
    15   170   171    1
    16   166   167    2
    17   152   154   am
    18   152   151    1
    19   174   171    1
    20   174   175    1
    21   148   151    1
    22   148   147    1
    23   177   175   am
    24   172   171    1
    25   172   173    2
    26   161   163   am
    27   161   162    2
    28   181   180    2
    29   178   179    1
    30   175   176    2
    31   147   144   am
    32   146   143    1
    33   180   179    1
    34   179   182    1
    35   144   145    2
    36   144   143    1
    37   143   142    1
    38   185   186    1
    39   182   183    1
    40   182   184    1
    41   142   136   am
    42   186   187    1
    43   186   189    1
    44   136   137    2
    45   136   135    1
    46   133   132    1
    47   187   188    2
    48   189   190    1
    49   190   191    1
    50   190   192    1
    51   138   135    1
    52   138   139    1
    53   141   139   ar
    54   135   134    1
    55    70    71    1
    56   139   140   ar
    57   134   128   am
    58    36    34   am
    59   130   131    1
    60   130   127    1
    61   132   131    1
    62    27    24    1
    63    16    15    2
    64   128   127    1
    65   128   129    2
    66    71    74    1
    67    71    72    1
    68    76    74    1
    69    23    24    1
    70    23    21   am
    71   127   126    1
    72    74    75    1
    73    34    33    1
    74    34    35    2
    75    20    21    1
    76    20    19    1
    77    33    32    1
    78    24    25    1
    79     4     3    2
    80    15    19   am
    81    15    14    1
    82    73    72    2
    83    21    22    2
    84    13    14    1
    85    13    11   am
    86    18    17    1
    87    25    28   am
    88    25    26    2
    89    10    11    1
    90    10     9    1
    91   126   120   am
    92   108   107    1
    93    75    77    1
    94    28    29    1
    95    32    29    1
    96    14    17    1
    97     3     9   am
    98     3     2    1
    99   117   115   ar
   100    11    12    2
   101    61    60    1
   102   107   106    1
   103   121   120    2
   104   115   116   ar
   105   115   114    1
   106    69    68    1
   107    29    30    1
   108    62    63    1
   109   120   119    1
   110    63    64    1
   111    63    66    1
   112   114   113    1
   113    67    68    1
   114    67    66    1
   115     5     2    1
   116     5     6    1
   117     5     7    1
   118     2     1    1
   119   112   111    2
   120     6     8    1
   121    60    59    1
   122    47    45    1
   123    64    65    2
   124    40    39    2
   125    37    30    1
   126    37    38    2
   127    30    31    2
   128   119   118    1
   129   119   122    1
   130    45    46    1
   131    45    42    1
   132   106   105    1
   133   124   123    1
   134    59    58    1
   135   123   122    1
   136   123   125    1
   137   111   118   am
   138   111   110    1
   139   113   110    1
   140    39    38    1
   141   105   102    1
   142   110   109    1
   143    52    49    1
   144    41    42    1
   145   109   103   am
   146    42    43    1
   147    58    57    1
   148    78    79    1
   149    44    43    2
   150   103   102    1
   151   103   104    2
   152    57    54    1
   153   102   101    1
   154    92    91    1
   155    83    85    1
   156    83    84    1
   157    83    82    1
   158    49    48    1
   159    49    50    1
   160    79    82    1
   161    79    80    1
   162   101    96   am
   163    54    53    1
   164    54    55    1
   165    50    51    2
   166    80    81    2
   167    90    91    1
   168    90    87    1
   169    91    93    1
   170    97    96    2
   171    96    95    1
   172    55    56    2
   173    89    88    2
   174    88    94   am
   175    88    87    1
   176    95    94    1
   177    95    98    1
   178    87    86    1
   179    99    98    1
   180    98   100    1
