@<TRIPOS>MOLECULE
tmp/1pmoA02.pdb
 117 112 0 0 0
SMALL
GASTEIGER

@<TRIPOS>ATOM
      1  N         39.8960   57.1990   10.7890 N.3    87  LEU87      -0.1245
      2  CA        39.2100   57.9910   11.8030 C.3    87  LEU87       0.1561
      3  C         39.9220   57.8710   13.1520 C.2    87  LEU87       0.2260
      4  O         40.0300   58.8540   13.8970 O.2    87  LEU87      -0.2867
      5  CB        37.7490   57.5480   11.9330 C.3    87  LEU87       0.0270
      6  CG        36.8510   57.8420   10.7280 C.3    87  LEU87       0.0019
      7  CD1       35.4760   57.2140   10.9330 C.3    87  LEU87       0.0001
      8  CD2       36.7140   59.3490   10.5530 C.3    87  LEU87       0.0001
      9  N         33.9430   62.3720   17.5460 N.3   106  GLN106     -0.1231
     10  CA        34.9640   62.3700   16.4980 C.3   106  GLN106      0.1698
     11  C         35.6310   63.7300   16.3760 C.2   106  GLN106      0.2592
     12  O         34.9630   64.7580   16.2800 O.2   106  GLN106     -0.2718
     13  CB        34.3470   61.9680   15.1570 C.3   106  GLN106      0.0381
     14  CG        35.3110   62.0010   13.9620 C.3   106  GLN106      0.0905
     15  CD        36.5130   61.0660   14.1150 C.2   106  GLN106      0.2608
     16  OE1       36.3650   59.8870   14.4430 O.2   106  GLN106     -0.2717
     17  NE2       37.7090   61.5920   13.8590 N.am  106  GLN106     -0.0878
     18  N         36.9560   63.7330   16.3890 N.am  107  ALA107     -0.1966
     19  CA        37.7070   64.9720   16.2720 C.3   107  ALA107      0.1728
     20  C         37.5210   65.5480   14.8730 C.2   107  ALA107      0.2616
     21  O         37.1560   64.8270   13.9380 O.2   107  ALA107     -0.2715
     22  CB        39.1780   64.7100   16.5380 C.3   107  ALA107      0.0334
     23  N         37.7550   66.8490   14.7360 N.am  108  VAL108     -0.1963
     24  CA        37.6290   67.5050   13.4460 C.3   108  VAL108      0.1727
     25  C         39.0070   67.5760   12.8030 C.2   108  VAL108      0.2617
     26  O         39.9070   68.2590   13.2920 O.2   108  VAL108     -0.2715
     27  CB        37.0650   68.9350   13.5780 C.3   108  VAL108      0.0290
     28  CG1       36.9600   69.5780   12.1890 C.3   108  VAL108      0.0023
     29  CG2       35.7070   68.8940   14.2630 C.3   108  VAL108      0.0023
     30  N         39.1670   66.8520   11.7050 N.am  109  GLY109     -0.1940
     31  CA        40.4400   66.8480   11.0190 C.3   109  GLY109      0.2014
     32  C         40.4680   65.8120    9.9180 C.2   109  GLY109      0.2639
     33  O         39.5160   65.0460    9.7330 O.2   109  GLY109     -0.2714
     34  N         41.5740   65.7720    9.1880 N.am  110  THR110     -0.1950
     35  CA        41.6810   64.8250    8.1030 C.3   110  THR110      0.1897
     36  C         43.1210   64.4650    7.7730 C.2   110  THR110      0.2313
     37  O         44.0600   65.1990    8.0920 O.2   110  THR110     -0.2863
     38  CB        41.0200   65.3930    6.8270 C.3   110  THR110      0.1794
     39  OG1       41.0340   64.4020    5.7950 O.3   110  THR110     -0.2208
     40  CG2       41.7740   66.6100    6.3340 C.3   110  THR110      0.0378
     41  N         41.5860   70.4780   13.5000 N.3   278  TRP278     -0.1241
     42  CA        40.9620   71.7460   13.8630 C.3   278  TRP278      0.1605
     43  C         40.5120   71.6350   15.3250 C.2   278  TRP278      0.2264
     44  O         40.1690   70.5460   15.7900 O.2   278  TRP278     -0.2867
     45  CB        39.7680   72.0330   12.9510 C.3   278  TRP278      0.0550
     46  CG        40.1660   72.5780   11.6140 C.ar  278  TRP278      0.0003
     47  CD1       40.4550   73.8810   11.3090 C.ar  278  TRP278      0.0946
     48  CD2       40.3870   71.8260   10.4130 C.ar  278  TRP278      0.0152
     49  NE1       40.8450   73.9850    9.9960 N.ar  278  TRP278     -0.2442
     50  CE2       40.8150   72.7390    9.4220 C.ar  278  TRP278      0.0810
     51  CE3       40.2670   70.4720   10.0800 C.ar  278  TRP278      0.0012
     52  CZ2       41.1290   72.3370    8.1140 C.ar  278  TRP278      0.0191
     53  CZ3       40.5790   70.0680    8.7730 C.ar  278  TRP278      0.0001
     54  CH2       41.0070   71.0000    7.8090 C.ar  278  TRP278      0.0015
     55  N         34.3800   72.0740   15.6750 N.3   281  GLU281     -0.1245
     56  CA        33.5440   72.3340   14.5140 C.3   281  GLU281      0.1567
     57  C         33.5500   73.7990   14.0950 C.2   281  GLU281      0.2260
     58  O         33.6130   74.1080   12.9050 O.2   281  GLU281     -0.2867
     59  CB        32.1040   71.9120   14.7970 C.3   281  GLU281      0.0388
     60  CG        31.9020   70.4230   14.9640 C.3   281  GLU281      0.1160
     61  CD        32.3550   69.6370   13.7510 C.2   281  GLU281      0.3649
     62  OE1       32.1960   70.1420   12.6130 O.co2 281  GLU281     -0.2457
     63  OE2       32.8580   68.5050   13.9370 O.co2 281  GLU281     -0.2457
     64  N         36.2360   75.0580   11.6820 N.3   284  LEU284     -0.1245
     65  CA        36.1920   74.6580   10.2770 C.3   284  LEU284      0.1561
     66  C         34.8860   75.0650    9.5850 C.2   284  LEU284      0.2260
     67  O         33.8570   74.4160    9.7730 O.2   284  LEU284     -0.2867
     68  CB        36.3730   73.1410   10.1790 C.3   284  LEU284      0.0270
     69  CG        36.1330   72.4770    8.8180 C.3   284  LEU284      0.0019
     70  CD1       37.1370   72.9930    7.7900 C.3   284  LEU284      0.0001
     71  CD2       36.2580   70.9710    8.9760 C.3   284  LEU284      0.0001
     72  N         31.8530   75.1520    7.5210 N.3   286  GLN286     -0.1245
     73  CA        31.1770   74.0730    6.8080 C.3   286  GLN286      0.1566
     74  C         31.0810   74.2820    5.3060 C.2   286  GLN286      0.2260
     75  O         30.9000   73.3230    4.5650 O.2   286  GLN286     -0.2867
     76  CB        29.7790   73.8320    7.3850 C.3   286  GLN286      0.0367
     77  CG        29.7210   72.7510    8.4740 C.3   286  GLN286      0.0905
     78  CD        30.0520   71.3420    7.9610 C.2   286  GLN286      0.2608
     79  OE1       29.4010   70.8310    7.0420 O.2   286  GLN286     -0.2717
     80  NE2       31.0610   70.7100    8.5650 N.am  286  GLN286     -0.0878
     81  N         33.4190   72.0490    3.5250 N.3   289  VAL289     -0.1245
     82  CA        33.2170   70.6130    3.5780 C.3   289  VAL289      0.1561
     83  C         32.1830   70.1490    2.5530 C.2   289  VAL289      0.2260
     84  O         31.1250   70.7610    2.3940 O.2   289  VAL289     -0.2867
     85  CB        32.7740   70.1810    4.9870 C.3   289  VAL289      0.0252
     86  CG1       32.6190   68.6760    5.0490 C.3   289  VAL289      0.0019
     87  CG2       33.7840   70.6590    6.0090 C.3   289  VAL289      0.0019
     88  N         29.2000   61.0570    3.8200 N.3   299  ILE299     -0.1231
     89  CA        30.3830   61.4860    4.5510 C.3   299  ILE299      0.1692
     90  C         30.9060   62.8280    4.0500 C.2   299  ILE299      0.2593
     91  O         30.8830   63.1100    2.8530 O.2   299  ILE299     -0.2718
     92  CB        31.4870   60.4160    4.4490 C.3   299  ILE299      0.0266
     93  CG1       30.9440   59.0920    4.9950 C.3   299  ILE299      0.0019
     94  CG2       32.7190   60.8410    5.2430 C.3   299  ILE299      0.0020
     95  CD1       31.8400   57.9000    4.7680 C.3   299  ILE299      0.0001
     96  N         31.3610   63.6560    4.9840 N.am  300  GLY300     -0.1942
     97  CA        31.8850   64.9600    4.6280 C.3   300  GLY300      0.2014
     98  C         33.3890   64.9150    4.4430 C.2   300  GLY300      0.2640
     99  O         34.1040   64.2740    5.2210 O.2   300  GLY300     -0.2714
    100  N         33.8790   65.5930    3.4120 N.am  301  THR301     -0.1936
    101  CA        35.3080   65.6090    3.1420 C.3   301  THR301      0.2028
    102  C         35.8540   66.9940    2.8270 C.2   301  THR301      0.2642
    103  O         35.2230   67.7860    2.1250 O.2   301  THR301     -0.2714
    104  CB        35.6560   64.6730    1.9550 C.3   301  THR301      0.1808
    105  OG1       35.3790   63.3140    2.3190 O.3   301  THR301     -0.2208
    106  CG2       37.1330   64.7890    1.5840 C.3   301  THR301      0.0379
    107  N         37.0240   67.2910    3.3730 N.am  302  PHE302     -0.1973
    108  CA        37.6810   68.5560    3.0860 C.3   302  PHE302      0.1639
    109  C         39.0810   68.1850    2.6340 C.2   302  PHE302      0.2290
    110  O         39.9780   67.9770    3.4540 O.2   302  PHE302     -0.2864
    111  CB        37.7420   69.4670    4.3170 C.3   302  PHE302      0.0560
    112  CG        38.3770   70.8130    4.0470 C.ar  302  PHE302     -0.0200
    113  CD1       38.3940   71.3490    2.7590 C.ar  302  PHE302     -0.0042
    114  CD2       38.9360   71.5550    5.0860 C.ar  302  PHE302     -0.0042
    115  CE1       38.9570   72.6020    2.5090 C.ar  302  PHE302     -0.0003
    116  CE2       39.5020   72.8100    4.8510 C.ar  302  PHE302     -0.0003
    117  CZ        39.5120   73.3360    3.5570 C.ar  302  PHE302     -0.0000
@<TRIPOS>BOND
     1   106   104    1
     2   104   105    1
     3   104   101    1
     4   103   102    2
     5    84    83    2
     6   115   113   ar
     7   115   117   ar
     8    83    82    1
     9   109   108    1
    10   109   110    2
    11   113   112   ar
    12   102   101    1
    13   102   107   am
    14    91    90    2
    15   108   107    1
    16   108   111    1
    17   101   100    1
    18   100    98   am
    19    81    82    1
    20   117   116   ar
    21    82    85    1
    22    88    89    1
    23   112   111    1
    24   112   114   ar
    25    90    89    1
    26    90    96   am
    27    98    97    1
    28    98    99    2
    29    92    89    1
    30    92    93    1
    31    92    94    1
    32    75    74    2
    33    97    96    1
    34    95    93    1
    35   116   114   ar
    36    85    86    1
    37    85    87    1
    38    74    73    1
    39    39    38    1
    40    40    38    1
    41    73    76    1
    42    73    72    1
    43    38    35    1
    44    79    78    2
    45    76    77    1
    46    36    37    2
    47    36    35    1
    48    70    69    1
    49    54    52   ar
    50    54    53   ar
    51    78    77    1
    52    78    80   am
    53    35    34    1
    54    52    50   ar
    55    53    51   ar
    56    69    71    1
    57    69    68    1
    58    34    32   am
    59    50    49   ar
    60    50    48   ar
    61    66    67    2
    62    66    65    1
    63    33    32    2
    64    32    31    1
    65    49    47   ar
    66    51    48   ar
    67    68    65    1
    68    65    64    1
    69    48    46   ar
    70     8     6    1
    71     6     7    1
    72     6     5    1
    73     1     2    1
    74    31    30    1
    75    47    46   ar
    76    46    45    1
    77    30    25   am
    78     2     5    1
    79     2     3    1
    80    28    27    1
    81    62    61   ar
    82    25    26    2
    83    25    24    1
    84    58    57    2
    85    45    42    1
    86     3     4    2
    87    24    27    1
    88    24    23    1
    89    41    42    1
    90    27    29    1
    91    61    63   ar
    92    61    60    1
    93    17    15   am
    94    42    43    1
    95    21    20    2
    96    14    15    1
    97    14    13    1
    98    57    56    1
    99    15    16    2
   100    56    59    1
   101    56    55    1
   102    23    20   am
   103    59    60    1
   104    20    19    1
   105    13    10    1
   106    43    44    2
   107    19    18    1
   108    19    22    1
   109    12    11    2
   110    11    18   am
   111    11    10    1
   112    10     9    1
