@<TRIPOS>MOLECULE
tmp/1pmoA01.pdb
 103 102 0 0 0
SMALL
GASTEIGER

@<TRIPOS>ATOM
      1  N         61.0080   59.9230    5.8700 N.3    54  GLN54      -0.1231
      2  CA        61.4000   58.5750    6.2570 C.3    54  GLN54       0.1698
      3  C         62.1320   57.8450    5.1420 C.2    54  GLN54       0.2593
      4  O         61.6850   57.8290    3.9940 O.2    54  GLN54      -0.2718
      5  CB        60.1720   57.7840    6.7060 C.3    54  GLN54       0.0381
      6  CG        59.6530   58.2030    8.0790 C.3    54  GLN54       0.0905
      7  CD        60.7360   58.1640    9.1480 C.2    54  GLN54       0.2608
      8  OE1       61.3450   57.1240    9.3890 O.2    54  GLN54      -0.2717
      9  NE2       60.9850   59.2980    9.7820 N.am   54  GLN54      -0.0878
     10  N         63.2600   57.2360    5.4990 N.am   55  THR55      -0.1939
     11  CA        64.0990   56.5150    4.5490 C.3    55  THR55       0.2028
     12  C         64.5260   55.1400    5.0570 C.2    55  THR55       0.2642
     13  O         65.2180   54.4050    4.3530 O.2    55  THR55      -0.2714
     14  CB        65.3780   57.3200    4.2450 C.3    55  THR55       0.1808
     15  OG1       65.9380   57.7870    5.4740 O.3    55  THR55      -0.2208
     16  CG2       65.0750   58.5090    3.3570 C.3    55  THR55       0.0379
     17  N         64.1340   54.8000    6.2820 N.am   56  TRP56      -0.1959
     18  CA        64.4860   53.5060    6.8560 C.3    56  TRP56       0.1771
     19  C         63.5100   52.4540    6.3230 C.2    56  TRP56       0.2620
     20  O         62.4430   52.7980    5.8270 O.2    56  TRP56      -0.2715
     21  CB        64.4220   53.5840    8.3830 C.3    56  TRP56       0.0590
     22  CG        64.9990   52.3760    9.0650 C.ar   56  TRP56       0.0006
     23  CD1       66.2830   51.9090    8.9700 C.ar   56  TRP56       0.0946
     24  CD2       64.3070   51.4710    9.9310 C.ar   56  TRP56       0.0152
     25  NE1       66.4290   50.7710    9.7220 N.ar   56  TRP56      -0.2442
     26  CE2       65.2330   50.4780   10.3220 C.ar   56  TRP56       0.0810
     27  CE3       62.9940   51.4020   10.4140 C.ar   56  TRP56       0.0012
     28  CZ2       64.8870   49.4270   11.1770 C.ar   56  TRP56       0.0191
     29  CZ3       62.6510   50.3560   11.2640 C.ar   56  TRP56       0.0001
     30  CH2       63.5920   49.3850   11.6360 C.ar   56  TRP56       0.0015
     31  N         63.8680   51.1780    6.4020 N.am   57  ASP57      -0.1957
     32  CA        62.9840   50.1270    5.9010 C.3    57  ASP57       0.1840
     33  C         62.5500   49.1500    6.9900 C.2    57  ASP57       0.2622
     34  O         63.3760   48.5870    7.7050 O.2    57  ASP57      -0.2715
     35  CB        63.6670   49.3720    4.7550 C.3    57  ASP57       0.1450
     36  CG        63.7320   50.1920    3.4720 C.2    57  ASP57       0.3671
     37  OD1       62.6810   50.3750    2.8240 O.co2  57  ASP57      -0.2456
     38  OD2       64.8260   50.6640    3.1080 O.co2  57  ASP57      -0.2456
     39  N         61.2380   48.9770    7.1160 N.am   58  ASP58      -0.1971
     40  CA        60.6400   48.0740    8.0960 C.3    58  ASP58       0.1709
     41  C         59.7960   47.0850    7.2930 C.2    58  ASP58       0.2293
     42  O         58.8960   47.4810    6.5510 O.2    58  ASP58      -0.2864
     43  CB        59.7600   48.8740    9.0720 C.3    58  ASP58       0.1436
     44  CG        59.1060   48.0020   10.1380 C.2    58  ASP58       0.3671
     45  OD1       58.6010   46.9180    9.7930 O.co2  58  ASP58      -0.2456
     46  OD2       59.0820   48.4040   11.3220 O.co2  58  ASP58      -0.2456
     47  N         55.9790   47.3450    7.4140 N.3    61  VAL61      -0.1231
     48  CA        55.4500   48.4880    6.6750 C.3    61  VAL61       0.1692
     49  C         55.3950   48.1500    5.1860 C.2    61  VAL61       0.2592
     50  O         54.4640   48.5460    4.4840 O.2    61  VAL61      -0.2718
     51  CB        56.3170   49.7640    6.9020 C.3    61  VAL61       0.0266
     52  CG1       55.8120   50.9120    6.0270 C.3    61  VAL61       0.0020
     53  CG2       56.2670   50.1710    8.3660 C.3    61  VAL61       0.0020
     54  N         56.3900   47.4110    4.7020 N.am   62  HIS62      -0.1976
     55  CA        56.3980   47.0130    3.2980 C.3    62  HIS62       0.1656
     56  C         55.2070   46.1020    3.0400 C.2    62  HIS62       0.2291
     57  O         54.5420   46.2260    2.0150 O.2    62  HIS62      -0.2864
     58  CB        57.7030   46.2950    2.9340 C.3    62  HIS62       0.0771
     59  CG        58.8420   47.2210    2.6260 C.ar   62  HIS62       0.0820
     60  ND1       59.3210   47.4140    1.3480 N.ar   62  HIS62      -0.2267
     61  CD2       59.6050   47.9970    3.4330 C.ar   62  HIS62       0.1154
     62  CE1       60.3310   48.2650    1.3820 C.ar   62  HIS62       0.1986
     63  NE2       60.5240   48.6340    2.6350 N.ar   62  HIS62      -0.2212
     64  N         56.9560   59.1680   11.4340 N.3   268  LEU268     -0.1231
     65  CA        57.4720   57.8380   11.0850 C.3   268  LEU268      0.1693
     66  C         56.7240   57.0540   10.0090 C.2   268  LEU268      0.2592
     67  O         57.0430   55.8980    9.7580 O.2   268  LEU268     -0.2718
     68  CB        57.5850   56.9750   12.3460 C.3   268  LEU268      0.0284
     69  CG        58.4040   57.6500   13.4530 C.3   268  LEU268      0.0019
     70  CD1       58.6350   56.6840   14.6120 C.3   268  LEU268      0.0001
     71  CD2       59.7430   58.1160   12.8730 C.3   268  LEU268      0.0001
     72  N         55.7390   57.6770    9.3750 N.am  269  ALA269     -0.1966
     73  CA        54.9790   57.0190    8.3230 C.3   269  ALA269      0.1713
     74  C         55.7330   57.0770    6.9870 C.2   269  ALA269      0.2458
     75  O         56.6460   57.8690    6.8210 O.2   269  ALA269     -0.2730
     76  CB        53.6030   57.7040    8.1730 C.3   269  ALA269      0.0333
     77  N         55.3630   56.2170    6.0260 N.am  270  PRO270     -0.2727
     78  CA        56.0090   56.2070    4.7110 C.3   270  PRO270      0.1402
     79  C         55.5610   57.4470    3.9300 C.2   270  PRO270      0.2269
     80  O         54.5180   58.0430    4.2290 O.2   270  PRO270     -0.2865
     81  CB        55.4570   54.9490    4.0560 C.3   270  PRO270      0.0296
     82  CG        55.0760   54.0820    5.2240 C.3   270  PRO270      0.0237
     83  CD        54.4770   55.0530    6.1800 C.3   270  PRO270      0.0939
     84  N         52.4770   52.3540   13.2480 N.3   319  GLU319     -0.1245
     85  CA        53.4910   53.0140   14.0720 C.3   319  GLU319      0.1567
     86  C         52.8680   53.4580   15.3980 C.2   319  GLU319      0.2260
     87  O         53.4590   53.2820   16.4560 O.2   319  GLU319     -0.2867
     88  CB        54.0700   54.2370   13.3510 C.3   319  GLU319      0.0388
     89  CG        54.7570   53.9540   12.0190 C.3   319  GLU319      0.1160
     90  CD        56.0080   53.0850   12.1540 C.2   319  GLU319      0.3649
     91  OE1       56.5040   52.9020   13.2840 O.co2 319  GLU319     -0.2457
     92  OE2       56.5050   52.5950   11.1160 O.co2 319  GLU319     -0.2457
     93  N         65.1780   58.7180   11.8600 N.3   416  ARG416     -0.1245
     94  CA        65.2650   57.3090   12.2130 C.3   416  ARG416      0.1563
     95  C         66.1230   56.5390   11.2210 C.2   416  ARG416      0.2260
     96  O         65.9410   56.6550   10.0080 O.2   416  ARG416     -0.2867
     97  CB        63.8680   56.6860   12.2920 C.3   416  ARG416      0.0307
     98  CG        63.8830   55.2260   12.7060 C.3   416  ARG416      0.0489
     99  CD        62.4780   54.6660   12.8880 C.3   416  ARG416      0.2205
    100  NE        61.6430   54.9170   11.7140 N.pl3 416  ARG416     -0.0865
    101  CZ        60.4530   54.3590   11.5010 C.cat 416  ARG416      0.5346
    102  NH1       59.9440   53.5010   12.3860 N.pl3 416  ARG416      0.1354
    103  NH2       59.7670   54.6720   10.4060 N.pl3 416  ARG416      0.1354
@<TRIPOS>BOND
     1    60    62   ar
     2    60    59   ar
     3    62    63   ar
     4    57    56    2
     5    59    58    1
     6    59    61   ar
     7    63    61   ar
     8    37    36   ar
     9    58    55    1
    10    56    55    1
    11    38    36   ar
    12    55    54    1
    13    16    14    1
    14    36    35    1
    15    79    80    2
    16    79    78    1
    17     4     3    2
    18    81    78    1
    19    81    82    1
    20    14    11    1
    21    14    15    1
    22    13    12    2
    23    50    49    2
    24    11    12    1
    25    11    10    1
    26    54    49   am
    27    78    77    1
    28    35    32    1
    29    12    17   am
    30     3    10   am
    31     3     2    1
    32    49    48    1
    33    82    83    1
    34    20    19    2
    35     1     2    1
    36    32    31    1
    37    32    33    1
    38    77    83    1
    39    77    74   am
    40    52    51    1
    41     2     5    1
    42    17    18    1
    43    19    31   am
    44    19    18    1
    45    42    41    2
    46    48    51    1
    47    48    47    1
    48     5     6    1
    49    75    74    2
    50    18    21    1
    51    51    53    1
    52    74    73    1
    53    33    39   am
    54    33    34    2
    55    39    40    1
    56    41    40    1
    57     6     7    1
    58    40    43    1
    59    76    73    1
    60    73    72    1
    61    21    22    1
    62    23    22   ar
    63    23    25   ar
    64    22    24   ar
    65    43    44    1
    66     7     8    2
    67     7     9   am
    68    72    66   am
    69    25    26   ar
    70    67    66    2
    71    45    44   ar
    72    24    26   ar
    73    24    27   ar
    74    96    95    2
    75    66    65    1
    76    44    46   ar
    77    26    28   ar
    78   103   101    1
    79    27    29   ar
    80    65    64    1
    81    65    68    1
    82    92    90   ar
    83    28    30   ar
    84    95    94    1
    85    29    30   ar
    86   101   100    2
    87   101   102    1
    88   100    99    1
    89    93    94    1
    90    89    90    1
    91    89    88    1
    92    90    91   ar
    93    94    97    1
    94    97    98    1
    95    68    69    1
    96    98    99    1
    97    71    69    1
    98    84    85    1
    99    88    85    1
   100    69    70    1
   101    85    86    1
   102    86    87    2
