@<TRIPOS>MOLECULE
tmp/1pmoA03.pdb
 114 109 0 0 0
SMALL
GASTEIGER

@<TRIPOS>ATOM
      1  N         41.4160   55.4270   -0.4610 N.3    73  TRP73      -0.1241
      2  CA        41.1440   56.2550    0.7150 C.3    73  TRP73       0.1605
      3  C         39.7850   56.9410    0.6880 C.2    73  TRP73       0.2264
      4  O         39.1290   57.0910    1.7180 O.2    73  TRP73      -0.2867
      5  CB        42.2120   57.3380    0.8270 C.3    73  TRP73       0.0550
      6  CG        42.0530   58.2980    1.9920 C.ar   73  TRP73       0.0003
      7  CD1       42.3960   58.0660    3.2970 C.ar   73  TRP73       0.0946
      8  CD2       41.5630   59.6460    1.9430 C.ar   73  TRP73       0.0152
      9  NE1       42.1580   59.1820    4.0600 N.ar   73  TRP73      -0.2442
     10  CE2       41.6450   60.1690    3.2570 C.ar   73  TRP73       0.0810
     11  CE3       41.0650   60.4650    0.9190 C.ar   73  TRP73       0.0012
     12  CZ2       41.2490   61.4780    3.5750 C.ar   73  TRP73       0.0191
     13  CZ3       40.6690   61.7720    1.2360 C.ar   73  TRP73       0.0001
     14  CH2       40.7650   62.2610    2.5550 C.ar   73  TRP73       0.0015
     15  N         34.9330   55.0480    1.0600 N.3    76  LYS76      -0.1245
     16  CA        34.5220   54.5640    2.3760 C.3    76  LYS76       0.1561
     17  C         33.6560   53.3120    2.3080 C.2    76  LYS76       0.2260
     18  O         33.7130   52.4520    3.1810 O.2    76  LYS76      -0.2867
     19  CB        33.7460   55.6700    3.0920 C.3    76  LYS76       0.0271
     20  CG        34.6090   56.6970    3.8050 C.3    76  LYS76       0.0035
     21  CD        35.6200   57.4020    2.9160 C.3    76  LYS76       0.0206
     22  CE        36.4120   58.3880    3.7700 C.3    76  LYS76       0.1093
     23  NZ        37.4020   59.2270    3.0300 N.3    76  LYS76      -0.1314
     24  N         38.7770   53.0910    6.2600 N.3    83  ALA83      -0.1245
     25  CA        38.1750   54.3480    6.6810 C.3    83  ALA83       0.1562
     26  C         38.1050   54.4300    8.2160 C.2    83  ALA83       0.2260
     27  O         38.3540   55.4880    8.8020 O.2    83  ALA83      -0.2867
     28  CB        36.7790   54.5040    6.0640 C.3    83  ALA83       0.0290
     29  N         41.4580   55.1770    9.6160 N.3    86  ASP86      -0.1225
     30  CA        41.7760   56.5760    9.3560 C.3    86  ASP86       0.1805
     31  C         41.1420   57.4850   10.4170 C.2    86  ASP86       0.2597
     32  O         41.7760   58.4270   10.8940 O.2    86  ASP86      -0.2718
     33  CB        41.2980   56.9730    7.9580 C.3    86  ASP86       0.1424
     34  CG        41.7620   58.3590    7.5590 C.2    86  ASP86       0.3668
     35  OD1       42.8360   58.7940    8.0240 O.co2  86  ASP86      -0.2456
     36  OD2       41.0620   59.0170    6.7650 O.co2  86  ASP86      -0.2456
     37  N         39.8960   57.1990   10.7890 N.am   87  LEU87      -0.1979
     38  CA        39.2100   57.9910   11.8030 C.3    87  LEU87       0.1596
     39  C         39.9220   57.8710   13.1520 C.2    87  LEU87       0.2287
     40  O         40.0300   58.8540   13.8970 O.2    87  LEU87      -0.2864
     41  CB        37.7490   57.5480   11.9330 C.3    87  LEU87       0.0297
     42  CG        36.8510   57.8420   10.7280 C.3    87  LEU87       0.0022
     43  CD1       35.4760   57.2140   10.9330 C.3    87  LEU87       0.0001
     44  CD2       36.7140   59.3490   10.5530 C.3    87  LEU87       0.0001
     45  N         42.9580   60.1710   13.1950 N.3    90  VAL90      -0.1245
     46  CA        42.5960   61.5670   13.3620 C.3    90  VAL90       0.1561
     47  C         42.3750   61.8590   14.8410 C.2    90  VAL90       0.2260
     48  O         42.8720   62.8570   15.3730 O.2    90  VAL90      -0.2867
     49  CB        41.3100   61.9180   12.5790 C.3    90  VAL90       0.0252
     50  CG1       40.6910   63.1970   13.1430 C.3    90  VAL90       0.0019
     51  CG2       41.6410   62.1160   11.1000 C.3    90  VAL90       0.0019
     52  N         33.9430   62.3720   17.5460 N.3   106  GLN106     -0.1231
     53  CA        34.9640   62.3700   16.4980 C.3   106  GLN106      0.1698
     54  C         35.6310   63.7300   16.3760 C.2   106  GLN106      0.2592
     55  O         34.9630   64.7580   16.2800 O.2   106  GLN106     -0.2718
     56  CB        34.3470   61.9680   15.1570 C.3   106  GLN106      0.0381
     57  CG        35.3110   62.0010   13.9620 C.3   106  GLN106      0.0905
     58  CD        36.5130   61.0660   14.1150 C.2   106  GLN106      0.2608
     59  OE1       36.3650   59.8870   14.4430 O.2   106  GLN106     -0.2717
     60  NE2       37.7090   61.5920   13.8590 N.am  106  GLN106     -0.0878
     61  N         36.9560   63.7330   16.3890 N.am  107  ALA107     -0.1980
     62  CA        37.7070   64.9720   16.2720 C.3   107  ALA107      0.1597
     63  C         37.5210   65.5480   14.8730 C.2   107  ALA107      0.2287
     64  O         37.1560   64.8270   13.9380 O.2   107  ALA107     -0.2864
     65  CB        39.1780   64.7100   16.5380 C.3   107  ALA107      0.0319
     66  N         39.1670   66.8520   11.7050 N.3   109  GLY109     -0.1210
     67  CA        40.4400   66.8480   11.0190 C.3   109  GLY109      0.1956
     68  C         40.4680   65.8120    9.9180 C.2   109  GLY109      0.2613
     69  O         39.5160   65.0460    9.7330 O.2   109  GLY109     -0.2717
     70  N         41.5740   65.7720    9.1880 N.am  110  THR110     -0.1938
     71  CA        41.6810   64.8250    8.1030 C.3   110  THR110      0.2028
     72  C         43.1210   64.4650    7.7730 C.2   110  THR110      0.2642
     73  O         44.0600   65.1990    8.0920 O.2   110  THR110     -0.2714
     74  CB        41.0200   65.3930    6.8270 C.3   110  THR110      0.1808
     75  OG1       41.0340   64.4020    5.7950 O.3   110  THR110     -0.2208
     76  CG2       41.7740   66.6100    6.3340 C.3   110  THR110      0.0379
     77  N         43.2770   63.3100    7.1420 N.am  111  ASN111     -0.1971
     78  CA        44.5740   62.8610    6.6910 C.3   111  ASN111      0.1688
     79  C         44.7840   63.5470    5.3400 C.2   111  ASN111      0.2292
     80  O         43.8190   63.9220    4.6760 O.2   111  ASN111     -0.2864
     81  CB        44.5700   61.3500    6.5000 C.3   111  ASN111      0.1181
     82  CG        45.7700   60.8660    5.7320 C.2   111  ASN111      0.2629
     83  OD1       45.6700   60.5500    4.5450 O.2   111  ASN111     -0.2716
     84  ND2       46.9250   60.8180    6.3980 N.am  111  ASN111     -0.0877
     85  N         29.2000   61.0570    3.8200 N.3   299  ILE299     -0.1231
     86  CA        30.3830   61.4860    4.5510 C.3   299  ILE299      0.1692
     87  C         30.9060   62.8280    4.0500 C.2   299  ILE299      0.2593
     88  O         30.8830   63.1100    2.8530 O.2   299  ILE299     -0.2718
     89  CB        31.4870   60.4160    4.4490 C.3   299  ILE299      0.0266
     90  CG1       30.9440   59.0920    4.9950 C.3   299  ILE299      0.0019
     91  CG2       32.7190   60.8410    5.2430 C.3   299  ILE299      0.0020
     92  CD1       31.8400   57.9000    4.7680 C.3   299  ILE299      0.0001
     93  N         31.3610   63.6560    4.9840 N.am  300  GLY300     -0.1942
     94  CA        31.8850   64.9600    4.6280 C.3   300  GLY300      0.2014
     95  C         33.3890   64.9150    4.4430 C.2   300  GLY300      0.2640
     96  O         34.1040   64.2740    5.2210 O.2   300  GLY300     -0.2714
     97  N         33.8790   65.5930    3.4120 N.am  301  THR301     -0.1936
     98  CA        35.3080   65.6090    3.1420 C.3   301  THR301      0.2028
     99  C         35.8540   66.9940    2.8270 C.2   301  THR301      0.2642
    100  O         35.2230   67.7860    2.1250 O.2   301  THR301     -0.2714
    101  CB        35.6560   64.6730    1.9550 C.3   301  THR301      0.1808
    102  OG1       35.3790   63.3140    2.3190 O.3   301  THR301     -0.2208
    103  CG2       37.1330   64.7890    1.5840 C.3   301  THR301      0.0379
    104  N         37.0240   67.2910    3.3730 N.am  302  PHE302     -0.1973
    105  CA        37.6810   68.5560    3.0860 C.3   302  PHE302      0.1639
    106  C         39.0810   68.1850    2.6340 C.2   302  PHE302      0.2290
    107  O         39.9780   67.9770    3.4540 O.2   302  PHE302     -0.2864
    108  CB        37.7420   69.4670    4.3170 C.3   302  PHE302      0.0560
    109  CG        38.3770   70.8130    4.0470 C.ar  302  PHE302     -0.0200
    110  CD1       38.3940   71.3490    2.7590 C.ar  302  PHE302     -0.0042
    111  CD2       38.9360   71.5550    5.0860 C.ar  302  PHE302     -0.0042
    112  CE1       38.9570   72.6020    2.5090 C.ar  302  PHE302     -0.0003
    113  CE2       39.5020   72.8100    4.8510 C.ar  302  PHE302     -0.0003
    114  CZ        39.5120   73.3360    3.5570 C.ar  302  PHE302     -0.0000
@<TRIPOS>BOND
     1     1     2    1
     2     3     2    1
     3     3     4    2
     4     2     5    1
     5     5     6    1
     6    11    13   ar
     7    11     8   ar
     8    15    16    1
     9    13    14   ar
    10   103   101    1
    11     8     6   ar
    12     8    10   ar
    13   101   102    1
    14   101    98    1
    15     6     7   ar
    16   100    99    2
    17    17    16    1
    18    17    18    2
    19    16    19    1
    20   112   110   ar
    21   112   114   ar
    22    14    12   ar
    23   106   105    1
    24   106   107    2
    25   110   109   ar
    26    99    98    1
    27    99   104   am
    28    88    87    2
    29    21    22    1
    30    21    20    1
    31    23    22    1
    32   105   104    1
    33   105   108    1
    34    19    20    1
    35    98    97    1
    36    10    12   ar
    37    10     9   ar
    38     7     9   ar
    39    97    95   am
    40   114   113   ar
    41    85    86    1
    42   109   108    1
    43   109   111   ar
    44    87    86    1
    45    87    93   am
    46    95    94    1
    47    95    96    2
    48    89    86    1
    49    89    90    1
    50    89    91    1
    51    83    82    2
    52    94    93    1
    53    80    79    2
    54    92    90    1
    55   113   111   ar
    56    79    78    1
    57    82    84   am
    58    82    81    1
    59    75    74    1
    60    28    25    1
    61    24    25    1
    62    76    74    1
    63    81    78    1
    64    25    26    1
    65    78    77    1
    66    36    34   ar
    67    74    71    1
    68    77    72   am
    69    34    33    1
    70    34    35   ar
    71    72    73    2
    72    72    71    1
    73    33    30    1
    74    71    70    1
    75    26    27    2
    76    70    68   am
    77    30    29    1
    78    30    31    1
    79    69    68    2
    80    68    67    1
    81    31    37   am
    82    31    32    2
    83    44    42    1
    84    42    43    1
    85    42    41    1
    86    37    38    1
    87    67    66    1
    88    51    49    1
    89    38    41    1
    90    38    39    1
    91    49    50    1
    92    49    46    1
    93    39    40    2
    94    45    46    1
    95    46    47    1
    96    60    58   am
    97    64    63    2
    98    57    58    1
    99    57    56    1
   100    58    59    2
   101    47    48    2
   102    63    62    1
   103    56    53    1
   104    62    61    1
   105    62    65    1
   106    55    54    2
   107    54    61   am
   108    54    53    1
   109    53    52    1
