@<TRIPOS>MOLECULE
tmp/1pmuA00.pdb
 133 123 0 0 0
SMALL
GASTEIGER

@<TRIPOS>ATOM
      1  N         15.6930   28.0840   47.1880 N.3    26  ILE26      -0.1245
      2  CA        16.3950   27.5260   46.0500 C.3    26  ILE26       0.1561
      3  C         15.3900   26.7410   45.2260 C.2    26  ILE26       0.2260
      4  O         15.4900   26.6730   44.0010 O.2    26  ILE26      -0.2867
      5  CB        17.5430   26.6280   46.5280 C.3    26  ILE26       0.0252
      6  CG1       18.7760   27.5020   46.7680 C.3    26  ILE26       0.0019
      7  CG2       17.8270   25.5170   45.5180 C.3    26  ILE26       0.0019
      8  CD1       19.8970   26.8340   47.5080 C.3    26  ILE26       0.0001
      9  N         15.5860   22.1090   44.1780 N.3    29  GLY29      -0.1210
     10  CA        16.9930   21.7630   44.2610 C.3    29  GLY29       0.1956
     11  C         17.5320   21.8990   45.6760 C.2    29  GLY29       0.2612
     12  O         18.6890   21.5880   45.9510 O.2    29  GLY29      -0.2717
     13  N         16.6970   22.3710   46.5900 N.am   30  ALA30      -0.1965
     14  CA        17.1270   22.5470   47.9660 C.3    30  ALA30       0.1728
     15  C         17.3060   21.2040   48.6600 C.2    30  ALA30       0.2616
     16  O         16.3370   20.4920   48.8790 O.2    30  ALA30      -0.2715
     17  CB        16.1090   23.3820   48.7160 C.3    30  ALA30       0.0334
     18  N         18.5430   20.8500   48.9880 N.am   31  GLN31      -0.1977
     19  CA        18.8000   19.5920   49.6820 C.3    31  GLN31       0.1601
     20  C         18.7410   19.8790   51.1730 C.2    31  GLN31       0.2287
     21  O         19.7650   19.9070   51.8930 O.2    31  GLN31      -0.2864
     22  CB        20.1630   19.0060   49.3040 C.3    31  GLN31       0.0394
     23  CG        20.1940   18.4820   47.9110 C.3    31  GLN31       0.0908
     24  CD        19.0460   17.5480   47.6480 C.2    31  GLN31       0.2608
     25  OE1       19.0870   16.3890   48.0440 O.2    31  GLN31      -0.2717
     26  NE2       18.0000   18.0520   46.9890 N.am   31  GLN31      -0.0878
     27  N         17.4270   24.8090   52.5530 N.3    34  VAL34      -0.1245
     28  CA        18.4610   25.5720   51.9060 C.3    34  VAL34       0.1561
     29  C         17.7890   26.6400   51.0830 C.2    34  VAL34       0.2260
     30  O         16.6720   26.4630   50.5960 O.2    34  VAL34      -0.2867
     31  CB        19.2530   24.6720   50.9760 C.3    34  VAL34       0.0252
     32  CG1       20.4770   25.3910   50.4620 C.3    34  VAL34       0.0019
     33  CG2       19.6140   23.3780   51.7060 C.3    34  VAL34       0.0019
     34  N         24.5690   29.3880   48.9940 N.3    47  ALA47      -0.1245
     35  CA        23.4440   28.5680   49.3550 C.3    47  ALA47       0.1562
     36  C         23.6130   28.4400   50.8360 C.2    47  ALA47       0.2260
     37  O         24.6870   28.0810   51.3130 O.2    47  ALA47      -0.2867
     38  CB        23.5360   27.2270   48.6930 C.3    47  ALA47       0.0290
     39  N         22.2920   26.5720   53.9860 N.3    49  LYS49      -0.1245
     40  CA        21.5110   25.4680   54.4840 C.3    49  LYS49       0.1561
     41  C         21.3480   25.7120   55.9600 C.2    49  LYS49       0.2260
     42  O         22.2810   26.1490   56.6350 O.2    49  LYS49      -0.2867
     43  CB        22.2440   24.1670   54.2590 C.3    49  LYS49       0.0271
     44  CG        21.4670   22.9530   54.5800 C.3    49  LYS49       0.0035
     45  CD        22.2900   21.7680   54.1360 C.3    49  LYS49       0.0206
     46  CE        21.5200   20.4930   54.2220 C.3    49  LYS49       0.1093
     47  NZ        22.4560   19.3820   53.9630 N.3    49  LYS49      -0.1314
     48  N         31.1500   20.2210   46.9570 N.3    80  ILE80      -0.1245
     49  CA        30.6910   21.4880   47.4760 C.3    80  ILE80       0.1561
     50  C         31.6090   21.9050   48.6240 C.2    80  ILE80       0.2260
     51  O         31.9540   21.1160   49.5030 O.2    80  ILE80      -0.2867
     52  CB        29.2060   21.3800   47.9160 C.3    80  ILE80       0.0252
     53  CG1       28.5790   22.7700   47.9750 C.3    80  ILE80       0.0019
     54  CG2       29.0950   20.6230   49.2270 C.3    80  ILE80       0.0019
     55  CD1       28.6050   23.5230   46.6390 C.3    80  ILE80       0.0001
     56  N         27.5960   27.9960   51.4260 N.3   102  MET102     -0.1230
     57  CA        28.4560   27.4030   50.4440 C.3   102  MET102      0.1702
     58  C         28.1060   28.0110   49.1110 C.2   102  MET102      0.2592
     59  O         27.0010   28.4990   48.9200 O.2   102  MET102     -0.2718
     60  CB        28.2740   25.8900   50.4560 C.3   102  MET102      0.0401
     61  CG        26.8670   25.4280   50.4420 C.3   102  MET102      0.0596
     62  SD        26.7300   23.7730   51.1120 S.3   102  MET102     -0.1393
     63  CE        25.5820   24.0590   52.3990 C.3   102  MET102      0.0692
     64  N         29.0720   28.0190   48.2060 N.am  103  GLU103     -0.1966
     65  CA        28.8710   28.5680   46.8890 C.3   103  GLU103      0.1733
     66  C         27.5520   28.0670   46.3290 C.2   103  GLU103      0.2616
     67  O         27.1210   26.9560   46.6050 O.2   103  GLU103     -0.2715
     68  CB        30.0260   28.1550   45.9870 C.3   103  GLU103      0.0429
     69  CG        29.8940   28.6270   44.5480 C.3   103  GLU103      0.1163
     70  CD        31.2350   28.6930   43.8410 C.2   103  GLU103      0.3649
     71  OE1       32.1800   28.0100   44.3000 O.co2 103  GLU103     -0.2457
     72  OE2       31.3350   29.4270   42.8320 O.co2 103  GLU103     -0.2457
     73  N         26.9000   28.9130   45.5550 N.am  104  LEU104     -0.1963
     74  CA        25.6320   28.5690   44.9450 C.3   104  LEU104      0.1728
     75  C         25.9240   28.3070   43.4830 C.2   104  LEU104      0.2616
     76  O         26.6190   29.0850   42.8340 O.2   104  LEU104     -0.2715
     77  CB        24.6630   29.7390   45.0790 C.3   104  LEU104      0.0311
     78  CG        23.3240   29.7010   44.3650 C.3   104  LEU104      0.0022
     79  CD1       22.2900   28.9000   45.1640 C.3   104  LEU104      0.0001
     80  CD2       22.8620   31.1280   44.1770 C.3   104  LEU104      0.0001
     81  N         25.4220   27.1900   42.9800 N.am  105  MET105     -0.1963
     82  CA        25.6120   26.8300   41.5890 C.3   105  MET105      0.1736
     83  C         24.4180   27.3500   40.8480 C.2   105  MET105      0.2616
     84  O         23.6480   28.1420   41.3900 O.2   105  MET105     -0.2715
     85  CB        25.7250   25.3220   41.4500 C.3   105  MET105      0.0427
     86  CG        26.8330   24.7930   42.3130 C.3   105  MET105      0.0599
     87  SD        28.2440   25.8970   42.1650 S.3   105  MET105     -0.1393
     88  CE        29.0150   25.1750   40.8150 C.3   105  MET105      0.0692
     89  N         24.2460   26.9210   39.6110 N.am  106  ASP106     -0.1957
     90  CA        23.1270   27.4390   38.8610 C.3   106  ASP106      0.1840
     91  C         22.0600   26.4190   38.6160 C.2   106  ASP106      0.2622
     92  O         20.9440   26.7720   38.2390 O.2   106  ASP106     -0.2715
     93  CB        23.6410   28.0320   37.5650 C.3   106  ASP106      0.1450
     94  CG        24.8080   28.9260   37.8010 C.2   106  ASP106      0.3671
     95  OD1       24.6980   29.7940   38.6910 O.co2 106  ASP106     -0.2456
     96  OD2       25.8310   28.7590   37.1140 O.co2 106  ASP106     -0.2456
     97  N         22.3940   25.1570   38.8660 N.am  107  ALA107     -0.1963
     98  CA        21.4420   24.0830   38.6620 C.3   107  ALA107      0.1728
     99  C         22.0060   22.8390   39.2790 C.2   107  ALA107      0.2616
    100  O         23.1710   22.8130   39.6500 O.2   107  ALA107     -0.2715
    101  CB        21.2330   23.8620   37.1760 C.3   107  ALA107      0.0334
    102  N         21.1720   21.8200   39.4270 N.am  108  ASN108     -0.1972
    103  CA        21.6640   20.5510   39.9270 C.3   108  ASN108      0.1688
    104  C         21.5510   19.6320   38.7080 C.2   108  ASN108      0.2292
    105  O         21.0040   20.0390   37.6810 O.2   108  ASN108     -0.2864
    106  CB        20.8280   20.0510   41.1050 C.3   108  ASN108      0.1181
    107  CG        19.3810   19.8880   40.7660 C.2   108  ASN108      0.2629
    108  OD1       19.0500   19.3800   39.7090 O.2   108  ASN108     -0.2716
    109  ND2       18.5020   20.3020   41.6720 N.am  108  ASN108     -0.0877
    110  N         18.2080   19.1880   36.5570 N.3   111  GLN111     -0.1245
    111  CA        18.0130   20.1990   35.5360 C.3   111  GLN111      0.1566
    112  C         18.8660   19.8470   34.3210 C.2   111  GLN111      0.2260
    113  O         18.3320   19.6360   33.2380 O.2   111  GLN111     -0.2867
    114  CB        18.4140   21.5740   36.0720 C.3   111  GLN111      0.0367
    115  CG        18.1890   21.7290   37.5580 C.3   111  GLN111      0.0905
    116  CD        17.6240   23.0740   37.9200 C.2   111  GLN111      0.2608
    117  OE1       18.1600   24.1190   37.5320 O.2   111  GLN111     -0.2717
    118  NE2       16.5280   23.0630   38.6700 N.am  111  GLN111     -0.0878
    119  N         25.2690   19.5370   41.8890 N.3   152  VAL152     -0.1245
    120  CA        24.9060   20.7730   41.2300 C.3   152  VAL152      0.1561
    121  C         26.0060   21.1960   40.3030 C.2   152  VAL152      0.2260
    122  O         27.1450   20.7260   40.4100 O.2   152  VAL152     -0.2867
    123  CB        24.6760   21.9060   42.2490 C.3   152  VAL152      0.0252
    124  CG1       23.4230   21.6510   43.0430 C.3   152  VAL152      0.0019
    125  CG2       25.8570   21.9900   43.1900 C.3   152  VAL152      0.0019
    126  N         27.0200   17.8150   46.4240 N.3   162  LEU162     -0.1245
    127  CA        26.5670   18.4770   47.6350 C.3   162  LEU162      0.1561
    128  C         26.9050   17.7870   48.9530 C.2   162  LEU162      0.2260
    129  O         27.3790   18.4280   49.8830 O.2   162  LEU162     -0.2867
    130  CB        25.0540   18.6770   47.5790 C.3   162  LEU162      0.0270
    131  CG        24.4620   19.4860   46.4360 C.3   162  LEU162      0.0019
    132  CD1       23.0220   19.8250   46.7400 C.3   162  LEU162      0.0001
    133  CD2       25.2720   20.7560   46.2550 C.3   162  LEU162      0.0001
@<TRIPOS>BOND
     1   113   112    2
     2   112   111    1
     3   111   114    1
     4   111   110    1
     5   114   115    1
     6    96    94   ar
     7   101    98    1
     8   117   116    2
     9   115   116    1
    10    93    94    1
    11    93    90    1
    12   105   104    2
    13    94    95   ar
    14   116   118   am
    15    92    91    2
    16    91    90    1
    17    91    97   am
    18    98    97    1
    19    98    99    1
    20   104   103    1
    21    90    89    1
    22    99   102   am
    23    99   100    2
    24   102   103    1
    25    89    83   am
    26   108   107    2
    27   103   106    1
    28   121   122    2
    29   121   120    1
    30   107   106    1
    31   107   109   am
    32    88    87    1
    33    83    84    2
    34    83    82    1
    35   120   119    1
    36   120   123    1
    37    85    82    1
    38    85    86    1
    39    82    81    1
    40    87    86    1
    41   123   124    1
    42   123   125    1
    43    72    70   ar
    44    76    75    2
    45    81    75   am
    46    75    74    1
    47    70    71   ar
    48    70    69    1
    49     4     3    2
    50    80    78    1
    51     9    10    1
    52    10    11    1
    53    78    77    1
    54    78    79    1
    55    69    68    1
    56    74    77    1
    57    74    73    1
    58     3     2    1
    59     7     5    1
    60    73    66   am
    61    11    12    2
    62    11    13   am
    63    68    65    1
    64     2     5    1
    65     2     1    1
    66   133   131    1
    67    66    67    2
    68    66    65    1
    69   126   127    1
    70   131   132    1
    71   131   130    1
    72     5     6    1
    73    13    14    1
    74    55    53    1
    75     6     8    1
    76    65    64    1
    77    48    49    1
    78    26    24   am
    79    49    52    1
    80    49    50    1
    81   130   127    1
    82   127   128    1
    83    24    23    1
    84    24    25    2
    85    23    22    1
    86    52    53    1
    87    52    54    1
    88    14    15    1
    89    14    17    1
    90    64    58   am
    91    50    51    2
    92    15    16    2
    93    15    18   am
    94    38    35    1
    95    59    58    2
    96   128   129    2
    97    18    19    1
    98    34    35    1
    99    58    57    1
   100    22    19    1
   101    35    36    1
   102    19    20    1
   103    61    60    1
   104    61    62    1
   105    57    60    1
   106    57    56    1
   107    32    31    1
   108    30    29    2
   109    36    37    2
   110    31    33    1
   111    31    28    1
   112    29    28    1
   113    62    63    1
   114    20    21    2
   115    28    27    1
   116    47    46    1
   117    39    40    1
   118    45    46    1
   119    45    44    1
   120    43    40    1
   121    43    44    1
   122    40    41    1
   123    41    42    2
