@<TRIPOS>MOLECULE
tmp/1pn0D01.pdb
 100 93 0 0 0
SMALL
GASTEIGER

@<TRIPOS>ATOM
      1  N         72.4730   46.6650  107.2850 N.3    54  ASP54      -0.1225
      2  CA        73.6000   47.3270  106.6470 C.3    54  ASP54       0.1805
      3  C         73.2430   47.9600  105.3050 C.2    54  ASP54       0.2598
      4  O         73.9800   48.7920  104.8320 O.2    54  ASP54      -0.2718
      5  CB        74.8410   46.4240  106.4860 C.3    54  ASP54       0.1424
      6  CG        74.5400   45.0950  105.8130 C.2    54  ASP54       0.3668
      7  OD1       73.4630   44.9440  105.1840 O.co2  54  ASP54      -0.2456
      8  OD2       75.3510   44.1400  105.8720 O.co2  54  ASP54      -0.2456
      9  N         72.1040   47.6050  104.7250 N.am   55  GLY55      -0.1957
     10  CA        71.8140   48.0790  103.3740 C.3    55  GLY55       0.1869
     11  C         70.9320   49.3160  103.2480 C.2    55  GLY55       0.2309
     12  O         69.9220   49.4350  103.9340 O.2    55  GLY55      -0.2863
     13  N         77.8740   47.0880   96.2840 N.3    80  MET80      -0.1245
     14  CA        78.0360   45.6920   95.9100 C.3    80  MET80       0.1570
     15  C         78.0500   45.4560   94.4070 C.2    80  MET80       0.2261
     16  O         78.6050   44.4540   93.9670 O.2    80  MET80      -0.2867
     17  CB        76.9710   44.8230   96.5840 C.3    80  MET80       0.0387
     18  CG        76.8940   45.0640   98.0930 C.3    80  MET80       0.0595
     19  SD        75.6180   44.0470   98.8030 S.3    80  MET80      -0.1393
     20  CE        74.0460   44.8840   98.3060 C.3    80  MET80       0.0692
     21  N         72.3420   51.2780   95.4950 N.3   112  GLN112     -0.1245
     22  CA        72.3200   50.6310   96.7830 C.3   112  GLN112      0.1566
     23  C         73.7590   50.5020   97.3420 C.2   112  GLN112      0.2260
     24  O         74.7010   50.1910   96.6000 O.2   112  GLN112     -0.2867
     25  CB        71.7290   49.2380   96.6310 C.3   112  GLN112      0.0367
     26  CG        71.7830   48.4260   97.9320 C.3   112  GLN112      0.0905
     27  CD        70.9590   47.1610   97.8400 C.2   112  GLN112      0.2608
     28  OE1       70.0890   46.9180   98.6720 O.2   112  GLN112     -0.2717
     29  NE2       71.2120   46.3610   96.8040 N.am  112  GLN112     -0.0878
     30  N         76.0750   49.3590  101.2130 N.3   114  VAL114     -0.1245
     31  CA        75.9660   48.7040  102.5090 C.3   114  VAL114      0.1561
     32  C         76.9860   49.2930  103.4610 C.2   114  VAL114      0.2260
     33  O         78.0670   49.6680  103.0550 O.2   114  VAL114     -0.2867
     34  CB        76.1230   47.1800  102.4070 C.3   114  VAL114      0.0252
     35  CG1       74.9960   46.6010  101.5850 C.3   114  VAL114      0.0019
     36  CG2       77.4470   46.8130  101.7400 C.3   114  VAL114      0.0019
     37  N         77.9400   40.7700   95.4910 N.3   265  ARG265     -0.1245
     38  CA        76.7120   40.2240   96.0600 C.3   265  ARG265      0.1563
     39  C         76.5130   38.9170   95.2850 C.2   265  ARG265      0.2260
     40  O         76.8590   38.8380   94.0900 O.2   265  ARG265     -0.2867
     41  CB        75.5050   41.1500   95.8730 C.3   265  ARG265      0.0307
     42  CG        74.2030   40.6120   96.5000 C.3   265  ARG265      0.0489
     43  CD        73.1680   41.6940   96.7340 C.3   265  ARG265      0.2205
     44  NE        71.9110   41.1830   97.2890 N.pl3 265  ARG265     -0.0865
     45  CZ        70.7320   41.7750   97.1080 C.cat 265  ARG265      0.5346
     46  NH1       70.6500   42.8830   96.3790 N.pl3 265  ARG265      0.1354
     47  NH2       69.6320   41.2580   97.6550 N.pl3 265  ARG265      0.1354
     48  N         73.4480   34.0120  100.8480 N.3   277  MET277     -0.1245
     49  CA        73.5070   35.3060  100.1810 C.3   277  MET277      0.1570
     50  C         74.7670   36.0110  100.6790 C.2   277  MET277      0.2261
     51  O         74.9590   36.1850  101.8970 O.2   277  MET277     -0.2867
     52  CB        72.3010   36.2020  100.4330 C.3   277  MET277      0.0387
     53  CG        72.4110   37.5240   99.6400 C.3   277  MET277      0.0595
     54  SD        70.8410   38.4710   99.6000 S.3   277  MET277     -0.1393
     55  CE        70.7430   38.9490  101.3130 C.3   277  MET277      0.0692
     56  N         76.9160   39.4100  100.9230 N.3   279  ILE279     -0.1245
     57  CA        76.7280   40.8530  100.9220 C.3   279  ILE279      0.1561
     58  C         78.1030   41.4580  101.2300 C.2   279  ILE279      0.2260
     59  O         78.5050   41.5600  102.4000 O.2   279  ILE279     -0.2867
     60  CB        75.6490   41.2380  101.9820 C.3   279  ILE279      0.0252
     61  CG1       74.2660   40.6850  101.5740 C.3   279  ILE279      0.0019
     62  CG2       75.6010   42.7450  102.2180 C.3   279  ILE279      0.0019
     63  CD1       73.6870   41.2980  100.2850 C.3   279  ILE279      0.0001
     64  N         74.7890   35.5420  104.7010 N.3   289  TYR289     -0.1241
     65  CA        73.5210   35.0110  105.1950 C.3   289  TYR289      0.1605
     66  C         73.5960   33.5480  104.8120 C.2   289  TYR289      0.2264
     67  O         73.7060   33.2100  103.6400 O.2   289  TYR289     -0.2867
     68  CB        72.3280   35.6810  104.5240 C.3   289  TYR289      0.0534
     69  CG        72.1230   37.1270  104.9150 C.ar  289  TYR289     -0.0201
     70  CD1       72.7930   38.1450  104.2380 C.ar  289  TYR289     -0.0009
     71  CD2       71.2670   37.4760  105.9530 C.ar  289  TYR289     -0.0009
     72  CE1       72.6020   39.4710  104.5790 C.ar  289  TYR289      0.0417
     73  CE2       71.0710   38.7930  106.3070 C.ar  289  TYR289      0.0417
     74  CZ        71.7290   39.7880  105.6120 C.ar  289  TYR289      0.1957
     75  OH        71.5490   41.1130  105.9440 O.3   289  TYR289     -0.2866
     76  N         65.4430   39.4210  105.5740 N.3   358  PRO358     -0.2102
     77  CA        66.4390   40.3750  105.0940 C.3   358  PRO358      0.1504
     78  C         66.9770   40.0760  103.6850 C.2   358  PRO358      0.2576
     79  O         67.9680   40.6980  103.3050 O.2   358  PRO358     -0.2718
     80  CB        67.5610   40.2090  106.1110 C.3   358  PRO358      0.0282
     81  CG        67.5300   38.7300  106.4270 C.3   358  PRO358      0.0208
     82  CD        66.0540   38.3100  106.3310 C.3   358  PRO358      0.0893
     83  N         66.3420   39.1900  102.9210 N.am  359  LYS359     -0.1966
     84  CA        66.8810   38.8350  101.5940 C.3   359  LYS359      0.1728
     85  C         67.0550   40.0320  100.6410 C.2   359  LYS359      0.2616
     86  O         67.9180   40.0080   99.7570 O.2   359  LYS359     -0.2715
     87  CB        66.0400   37.7330  100.9300 C.3   359  LYS359      0.0311
     88  CG        66.1420   36.3460  101.5860 C.3   359  LYS359      0.0038
     89  CD        67.6020   35.8630  101.7540 C.3   359  LYS359      0.0206
     90  CE        68.1110   35.9860  103.2060 C.3   359  LYS359      0.1093
     91  NZ        67.3720   35.1030  104.1590 N.3   359  LYS359     -0.1314
     92  N         66.2530   41.0780  100.8180 N.am  360  ALA360     -0.1963
     93  CA        66.3590   42.2620   99.9720 C.3   360  ALA360      0.1728
     94  C         66.6950   43.5100  100.7910 C.2   360  ALA360      0.2616
     95  O         66.5160   44.6440  100.3260 O.2   360  ALA360     -0.2715
     96  CB        65.0710   42.4650   99.1520 C.3   360  ALA360      0.0334
     97  N         67.1730   43.2880  102.0170 N.am  361  GLY361     -0.1955
     98  CA        67.5880   44.3700  102.8990 C.3   361  GLY361      0.1869
     99  C         66.6450   45.5450  102.8570 C.2   361  GLY361      0.2309
    100  O         67.0440   46.6670  102.5390 O.2   361  GLY361     -0.2863
@<TRIPOS>BOND
     1    16    15    2
     2    40    39    2
     3    15    14    1
     4    39    38    1
     5    37    38    1
     6    21    22    1
     7    41    38    1
     8    41    42    1
     9    14    13    1
    10    14    17    1
    11    46    45    1
    12    42    43    1
    13    17    18    1
    14    24    23    2
    15    25    22    1
    16    25    26    1
    17    43    44    1
    18    22    23    1
    19    29    27   am
    20    45    44    2
    21    45    47    1
    22    27    26    1
    23    27    28    2
    24    18    19    1
    25    20    19    1
    26    96    93    1
    27    54    53    1
    28    54    55    1
    29    53    52    1
    30    86    85    2
    31    93    94    1
    32    93    92    1
    33    49    52    1
    34    49    50    1
    35    49    48    1
    36    63    61    1
    37    95    94    2
    38    85    92   am
    39    85    84    1
    40    50    51    2
    41    94    97   am
    42    57    56    1
    43    57    58    1
    44    57    60    1
    45    87    88    1
    46    87    84    1
    47    30    31    1
    48    58    59    2
    49    61    60    1
    50    35    34    1
    51    88    89    1
    52    84    83    1
    53    36    34    1
    54    89    90    1
    55    60    62    1
    56    97    98    1
    57    34    31    1
    58    31    32    1
    59   100    99    2
    60    99    98    1
    61    83    78   am
    62    33    32    2
    63    90    91    1
    64    11    10    1
    65    11    12    2
    66    79    78    2
    67    10     9    1
    68    67    66    2
    69    78    77    1
    70    70    72   ar
    71    70    69   ar
    72    68    69    1
    73    68    65    1
    74    72    74   ar
    75    64    65    1
    76     9     3   am
    77    66    65    1
    78     4     3    2
    79    69    71   ar
    80    77    76    1
    81    77    80    1
    82     7     6   ar
    83     3     2    1
    84    76    82    1
    85    74    75    1
    86    74    73   ar
    87     6     8   ar
    88     6     5    1
    89    71    73   ar
    90    80    81    1
    91    82    81    1
    92     5     2    1
    93     2     1    1
