@<TRIPOS>MOLECULE
tmp/1pn9A00.pdb
 187 184 0 0 0
SMALL
GASTEIGER

@<TRIPOS>ATOM
      1  N         48.3650   38.4530    6.9870 N.3     6  LEU6       -0.1245
      2  CA        47.3930   37.3680    7.0060 C.3     6  LEU6        0.1561
      3  C         46.0820   38.0040    6.5590 C.2     6  LEU6        0.2260
      4  O         45.6840   39.0470    7.0710 O.2     6  LEU6       -0.2867
      5  CB        47.2080   36.7750    8.4010 C.3     6  LEU6        0.0270
      6  CG        48.2380   35.7600    8.8990 C.3     6  LEU6        0.0019
      7  CD1       47.8380   35.2970   10.2790 C.3     6  LEU6        0.0001
      8  CD2       48.3140   34.5740    7.9440 C.3     6  LEU6        0.0001
      9  N         43.1780   37.3430    7.2760 N.3     8  GLY8       -0.1210
     10  CA        42.2380   37.4600    8.3770 C.3     8  GLY8        0.1956
     11  C         42.4070   38.7080    9.2350 C.2     8  GLY8        0.2613
     12  O         41.4750   39.1150    9.9290 O.2     8  GLY8       -0.2717
     13  N         43.5890   39.3170    9.1780 N.am    9  SER9       -0.1938
     14  CA        43.8990   40.5110    9.9650 C.3     9  SER9        0.2055
     15  C         43.3740   41.8200    9.3730 C.2     9  SER9        0.2643
     16  O         43.7780   42.2190    8.2880 O.2     9  SER9       -0.2714
     17  CB        45.4140   40.6260   10.1490 C.3     9  SER9        0.2130
     18  OG        45.7680   41.8640   10.7480 O.3     9  SER9       -0.2179
     19  N         42.4910   42.4950   10.1060 N.am   10  ALA10      -0.1963
     20  CA        41.9270   43.7630    9.6510 C.3    10  ALA10       0.1713
     21  C         43.0000   44.7750    9.2720 C.2    10  ALA10       0.2458
     22  O         42.9850   45.3120    8.1670 O.2    10  ALA10      -0.2730
     23  CB        41.0200   44.3590   10.7250 C.3    10  ALA10       0.0333
     24  N         43.9430   45.0650   10.1850 N.am   11  PRO11      -0.2727
     25  CA        44.9720   46.0440    9.8140 C.3    11  PRO11       0.1402
     26  C         45.7010   45.6530    8.5290 C.2    11  PRO11       0.2269
     27  O         46.0390   46.5110    7.7100 O.2    11  PRO11      -0.2865
     28  CB        45.8820   46.0890   11.0510 C.3    11  PRO11       0.0296
     29  CG        45.6600   44.7630   11.7130 C.3    11  PRO11       0.0237
     30  CD        44.1730   44.5490   11.5440 C.3    11  PRO11       0.0939
     31  N         50.5880   33.7290   12.5440 N.3    33  LEU33      -0.1231
     32  CA        50.8500   33.9980   13.9510 C.3    33  LEU33       0.1693
     33  C         50.5210   32.7550   14.7710 C.2    33  LEU33       0.2591
     34  O         51.1140   32.5210   15.8290 O.2    33  LEU33      -0.2718
     35  CB        49.9730   35.1490   14.4450 C.3    33  LEU33       0.0284
     36  CG        49.9130   36.4090   13.5860 C.3    33  LEU33       0.0019
     37  CD1       49.0230   37.4330   14.2830 C.3    33  LEU33       0.0001
     38  CD2       51.3100   36.9680   13.3680 C.3    33  LEU33       0.0001
     39  N         49.5680   31.9670   14.2790 N.am   34  MET34      -0.1979
     40  CA        49.1360   30.7600   14.9780 C.3    34  MET34       0.1605
     41  C         50.1960   29.6640   14.9630 C.2    34  MET34       0.2287
     42  O         50.0640   28.6470   15.6490 O.2    34  MET34      -0.2864
     43  CB        47.8300   30.2370   14.3720 C.3    34  MET34       0.0413
     44  CG        46.6770   31.2280   14.4610 C.3    34  MET34       0.0598
     45  SD        46.5070   31.9650   16.1140 S.3    34  MET34      -0.1393
     46  CE        45.8360   30.6630   17.0100 C.3    34  MET34       0.0692
     47  N         55.6870   34.9400   13.3570 N.3    38  HIS38      -0.1241
     48  CA        56.0630   36.3180   13.6510 C.3    38  HIS38       0.1621
     49  C         57.1600   36.3680   14.7060 C.2    38  HIS38       0.2264
     50  O         57.7160   37.4290   14.9890 O.2    38  HIS38      -0.2867
     51  CB        54.8500   37.1130   14.1340 C.3    38  HIS38       0.0745
     52  CG        54.2180   36.5590   15.3690 C.ar   38  HIS38       0.0817
     53  ND1       53.7240   35.2760   15.4380 N.ar   38  HIS38      -0.2268
     54  CD2       53.9740   37.1240   16.5750 C.ar   38  HIS38       0.1154
     55  CE1       53.2010   35.0720   16.6340 C.ar   38  HIS38       0.1986
     56  NE2       53.3400   36.1780   17.3430 N.ar   38  HIS38      -0.2212
     57  N         58.8070   44.3390   17.4020 N.3    49  GLN49      -0.1231
     58  CA        57.4980   44.2850   18.0520 C.3    49  GLN49       0.1698
     59  C         56.7250   43.0880   17.5170 C.2    49  GLN49       0.2592
     60  O         55.5780   42.8510   17.8950 O.2    49  GLN49      -0.2718
     61  CB        56.7050   45.5770   17.8080 C.3    49  GLN49       0.0381
     62  CG        55.7500   45.9110   18.9540 C.3    49  GLN49       0.0905
     63  CD        54.9510   47.1960   18.7420 C.2    49  GLN49       0.2608
     64  OE1       55.3700   48.0970   18.0100 O.2    49  GLN49      -0.2717
     65  NE2       53.8000   47.2900   19.4120 N.am   49  GLN49      -0.0878
     66  N         57.3780   42.3380   16.6340 N.am   50  HIS50      -0.1962
     67  CA        56.8140   41.1360   16.0240 C.3    50  HIS50       0.1787
     68  C         55.3100   41.1780   15.7740 C.2    50  HIS50       0.2620
     69  O         54.5530   40.3980   16.3490 O.2    50  HIS50      -0.2715
     70  CB        57.1660   39.9080   16.8730 C.3    50  HIS50       0.0785
     71  CG        56.7810   40.0300   18.3180 C.ar   50  HIS50       0.0821
     72  ND1       55.4750   39.9400   18.7540 N.ar   50  HIS50      -0.2267
     73  CD2       57.5330   40.2340   19.4260 C.ar   50  HIS50       0.1154
     74  CE1       55.4400   40.0810   20.0680 C.ar   50  HIS50       0.1986
     75  NE2       56.6750   40.2610   20.5020 N.ar   50  HIS50      -0.2212
     76  N         54.8780   42.0860   14.9030 N.am   51  CYS51      -0.1954
     77  CA        53.4570   42.1920   14.5910 C.3    51  CYS51       0.1843
     78  C         53.1980   42.4480   13.1080 C.2    51  CYS51       0.2625
     79  O         54.0480   42.9780   12.3950 O.2    51  CYS51      -0.2714
     80  CB        52.8030   43.3000   15.4310 C.3    51  CYS51       0.0997
     81  SG        53.4150   44.9750   15.1320 S.3    51  CYS51      -0.0797
     82  N         52.0150   42.0510   12.6580 N.am   52  ILE52      -0.1964
     83  CA        51.5980   42.2380   11.2760 C.3    52  ILE52       0.1712
     84  C         50.4340   43.2190   11.2790 C.2    52  ILE52       0.2458
     85  O         49.6660   43.2760   12.2440 O.2    52  ILE52      -0.2730
     86  CB        51.1180   40.9170   10.6400 C.3    52  ILE52       0.0289
     87  CG1       49.9570   40.3340   11.4540 C.3    52  ILE52       0.0022
     88  CG2       52.2680   39.9320   10.5640 C.3    52  ILE52       0.0023
     89  CD1       49.3450   39.0760   10.8410 C.3    52  ILE52       0.0001
     90  N         50.2780   43.9890   10.1930 N.am   53  PRO53      -0.2727
     91  CA        51.1420   43.9550    9.0050 C.3    53  PRO53       0.1402
     92  C         52.4920   44.6400    9.1770 C.2    53  PRO53       0.2269
     93  O         52.6240   45.5830    9.9540 O.2    53  PRO53      -0.2865
     94  CB        50.2970   44.6700    7.9600 C.3    53  PRO53       0.0296
     95  CG        49.6640   45.7660    8.7870 C.3    53  PRO53       0.0237
     96  CD        49.2190   45.0040   10.0370 C.3    53  PRO53       0.0939
     97  N         52.5800   49.1000   11.9250 N.3    64  GLU64      -0.1231
     98  CA        51.4710   49.9530   12.3660 C.3    64  GLU64       0.1699
     99  C         50.7640   50.2630   11.0410 C.2    64  GLU64       0.2593
    100  O         51.1690   51.1520   10.2950 O.2    64  GLU64      -0.2718
    101  CB        51.9390   51.2520   13.0330 C.3    64  GLU64       0.0402
    102  CG        52.2420   51.1320   14.5260 C.3    64  GLU64       0.1161
    103  CD        51.0740   50.5640   15.3390 C.2    64  GLU64       0.3649
    104  OE1       49.9070   50.6780   14.9020 O.co2  64  GLU64      -0.2457
    105  OE2       51.3270   50.0080   16.4290 O.co2  64  GLU64      -0.2457
    106  N         49.7180   49.4950   10.7570 N.am   65  SER65      -0.1938
    107  CA        48.9460   49.6000    9.5270 C.3    65  SER65       0.2055
    108  C         48.6250   50.9980    9.0260 C.2    65  SER65       0.2642
    109  O         48.7510   51.2780    7.8340 O.2    65  SER65      -0.2714
    110  CB        47.6420   48.8120    9.6670 C.3    65  SER65       0.2130
    111  OG        46.8470   49.3230   10.7210 O.3    65  SER65      -0.2179
    112  N         48.2220   51.8820    9.9260 N.am   66  ARG66      -0.1977
    113  CA        47.8520   53.2230    9.5110 C.3    66  ARG66       0.1597
    114  C         49.0450   54.0990    9.1340 C.2    66  ARG66       0.2287
    115  O         48.9190   55.0230    8.3290 O.2    66  ARG66      -0.2864
    116  CB        46.9680   53.8320   10.5950 C.3    66  ARG66       0.0334
    117  CG        45.7830   52.8940   10.8630 C.3    66  ARG66       0.0492
    118  CD        44.8640   53.3330   11.9890 C.3    66  ARG66       0.2205
    119  NE        43.7990   52.3500   12.1870 N.pl3  66  ARG66      -0.0865
    120  CZ        43.9800   51.1350   12.7000 C.cat  66  ARG66       0.5346
    121  NH1       45.1880   50.7390   13.0780 N.pl3  66  ARG66       0.1354
    122  NH2       42.9490   50.3080   12.8300 N.pl3  66  ARG66       0.1354
    123  N         41.6630   52.8110   15.1940 N.3   101  MET101     -0.1245
    124  CA        42.5240   51.9660   16.0070 C.3   101  MET101      0.1570
    125  C         42.1750   51.9520   17.4860 C.2   101  MET101      0.2261
    126  O         41.9320   50.8930   18.0580 O.2   101  MET101     -0.2867
    127  CB        43.9770   52.3790   15.8530 C.3   101  MET101      0.0387
    128  CG        44.9060   51.4670   16.6220 C.3   101  MET101      0.0595
    129  SD        46.6160   51.8840   16.3930 S.3   101  MET101     -0.1393
    130  CE        46.9360   52.7270   17.9090 C.3   101  MET101      0.0692
    131  N         38.2100   49.4470   16.3040 N.3   105  TYR105     -0.1241
    132  CA        38.8490   48.1370   16.2930 C.3   105  TYR105      0.1605
    133  C         39.1740   47.6630   17.7060 C.2   105  TYR105      0.2264
    134  O         38.9270   46.5110   18.0510 O.2   105  TYR105     -0.2867
    135  CB        40.1430   48.1580   15.4700 C.3   105  TYR105      0.0534
    136  CG        40.8180   46.7980   15.3930 C.ar  105  TYR105     -0.0201
    137  CD1       40.2570   45.7650   14.6470 C.ar  105  TYR105     -0.0009
    138  CD2       42.0070   46.5400   16.0850 C.ar  105  TYR105     -0.0009
    139  CE1       40.8540   44.5150   14.5850 C.ar  105  TYR105      0.0417
    140  CE2       42.6140   45.2890   16.0320 C.ar  105  TYR105      0.0417
    141  CZ        42.0330   44.2800   15.2790 C.ar  105  TYR105      0.1957
    142  OH        42.6260   43.0360   15.2020 O.3   105  TYR105     -0.2866
    143  N         38.1090   38.9580   20.7550 N.3   113  TYR113     -0.1241
    144  CA        39.2960   38.1200   20.8680 C.3   113  TYR113      0.1605
    145  C         39.3810   37.2520   22.1220 C.2   113  TYR113      0.2264
    146  O         39.9430   36.1580   22.0830 O.2   113  TYR113     -0.2867
    147  CB        40.5530   38.9720   20.6790 C.3   113  TYR113      0.0534
    148  CG        40.6470   39.5190   19.2660 C.ar  113  TYR113     -0.0201
    149  CD1       39.7360   39.1150   18.2880 C.ar  113  TYR113     -0.0009
    150  CD2       41.6430   40.4200   18.9010 C.ar  113  TYR113     -0.0009
    151  CE1       39.8080   39.5900   16.9870 C.ar  113  TYR113      0.0417
    152  CE2       41.7270   40.9050   17.5940 C.ar  113  TYR113      0.0417
    153  CZ        40.8050   40.4840   16.6430 C.ar  113  TYR113      0.1957
    154  OH        40.8730   40.9510   15.3490 O.3   113  TYR113     -0.2866
    155  N         39.7680   33.4400   21.0230 N.3   117  PHE117     -0.1241
    156  CA        41.0450   32.8110   21.3400 C.3   117  PHE117      0.1605
    157  C         41.1400   32.1580   22.7120 C.2   117  PHE117      0.2264
    158  O         41.6850   31.0620   22.8450 O.2   117  PHE117     -0.2867
    159  CB        42.1820   33.8300   21.1930 C.3   117  PHE117      0.0534
    160  CG        42.3360   34.3720   19.8020 C.ar  117  PHE117     -0.0203
    161  CD1       41.3850   35.2370   19.2680 C.ar  117  PHE117     -0.0042
    162  CD2       43.4260   34.0080   19.0190 C.ar  117  PHE117     -0.0042
    163  CE1       41.5160   35.7340   17.9740 C.ar  117  PHE117     -0.0003
    164  CE2       43.5680   34.4980   17.7220 C.ar  117  PHE117     -0.0003
    165  CZ        42.6100   35.3640   17.1980 C.ar  117  PHE117     -0.0000
    166  N         38.5250   34.8590    8.1010 N.3   203  PHE203     -0.1241
    167  CA        38.5230   35.0700    9.5450 C.3   203  PHE203      0.1605
    168  C         37.3320   34.3350   10.1510 C.2   203  PHE203      0.2264
    169  O         37.4340   33.7230   11.2160 O.2   203  PHE203     -0.2867
    170  CB        38.4010   36.5670    9.8550 C.3   203  PHE203      0.0534
    171  CG        38.4910   36.8920   11.3160 C.ar  203  PHE203     -0.0203
    172  CD1       39.7230   36.9040   11.9630 C.ar  203  PHE203     -0.0042
    173  CD2       37.3430   37.1690   12.0520 C.ar  203  PHE203     -0.0042
    174  CE1       39.8150   37.1850   13.3210 C.ar  203  PHE203     -0.0003
    175  CE2       37.4220   37.4530   13.4150 C.ar  203  PHE203     -0.0003
    176  CZ        38.6630   37.4600   14.0510 C.ar  203  PHE203     -0.0000
    177  N         38.3150   31.1900   12.5910 N.3   207  PHE207     -0.1241
    178  CA        38.1990   31.4220   14.0240 C.3   207  PHE207      0.1605
    179  C         36.7850   31.6720   14.5330 C.2   207  PHE207      0.2264
    180  O         36.5820   31.8370   15.7360 O.2   207  PHE207     -0.2867
    181  CB        39.0920   32.5990   14.4290 C.3   207  PHE207      0.0534
    182  CG        40.4700   32.5520   13.8330 C.ar  207  PHE207     -0.0203
    183  CD1       41.4400   31.7040   14.3550 C.ar  207  PHE207     -0.0042
    184  CD2       40.7970   33.3520   12.7420 C.ar  207  PHE207     -0.0042
    185  CE1       42.7170   31.6540   13.8020 C.ar  207  PHE207     -0.0003
    186  CE2       42.0710   33.3100   12.1840 C.ar  207  PHE207     -0.0003
    187  CZ        43.0320   32.4600   12.7150 C.ar  207  PHE207     -0.0000
@<TRIPOS>BOND
     1     3     2    1
     2     3     4    2
     3     1     2    1
     4     2     5    1
     5     9    10    1
     6    27    26    2
     7   109   108    2
     8     8     6    1
     9    94    95    1
    10    94    91    1
    11   166   167    1
    12    22    21    2
    13    16    15    2
    14   115   114    2
    15    10    11    1
    16     5     6    1
    17    26    25    1
    18    95    96    1
    19     6     7    1
    20    91    92    1
    21    91    90    1
    22   108   107    1
    23   108   112   am
    24   114   113    1
    25    92    93    2
    26    13    11   am
    27    13    14    1
    28    11    12    2
    29    21    20    1
    30    21    24   am
    31    15    14    1
    32    15    19   am
    33   113   112    1
    34   113   116    1
    35   107   110    1
    36   107   106    1
    37   167   170    1
    38   167   168    1
    39    20    19    1
    40    20    23    1
    41   110   111    1
    42    25    24    1
    43    25    28    1
    44   170   171    1
    45    14    17    1
    46    96    90    1
    47    17    18    1
    48   168   169    2
    49    24    30    1
    50    90    84   am
    51   100    99    2
    52    88    86    1
    53   116   117    1
    54    86    83    1
    55    86    87    1
    56   106    99   am
    57    89    87    1
    58   117   118    1
    59    99    98    1
    60    28    29    1
    61    83    84    1
    62    83    82    1
    63    84    85    2
    64   171   172   ar
    65   171   173   ar
    66    30    29    1
    67    97    98    1
    68   172   174   ar
    69   118   119    1
    70   173   175   ar
    71   186   187   ar
    72   186   184   ar
    73   119   120    2
    74    98   101    1
    75    79    78    2
    76    31    32    1
    77   177   178    1
    78    82    78   am
    79   120   122    1
    80   120   121    1
    81   187   185   ar
    82   184   182   ar
    83   101   102    1
    84    78    77    1
    85   174   176   ar
    86    47    48    1
    87    38    36    1
    88   175   176   ar
    89    36    37    1
    90    36    35    1
    91    48    51    1
    92    48    49    1
    93   185   183   ar
    94   182   183   ar
    95   182   181    1
    96    32    35    1
    97    32    33    1
    98   178   181    1
    99   178   179    1
   100    51    52    1
   101    39    33   am
   102    39    40    1
   103    43    44    1
   104    43    40    1
   105    44    45    1
   106   102   103    1
   107   179   180    2
   108   139   137   ar
   109   139   141   ar
   110    77    76    1
   111    77    80    1
   112   137   136   ar
   113    49    50    2
   114    33    34    2
   115   104   103   ar
   116    76    68   am
   117    41    40    1
   118    41    42    2
   119    81    80    1
   120   123   124    1
   121   142   141    1
   122   141   140   ar
   123   103   105   ar
   124   154   153    1
   125    52    53   ar
   126    52    54   ar
   127   136   135    1
   128   136   138   ar
   129    53    55   ar
   130   135   132    1
   131    68    67    1
   132    68    69    2
   133   127   124    1
   134   127   128    1
   135   124   125    1
   136    67    66    1
   137    67    70    1
   138   140   138   ar
   139    45    46    1
   140   132   131    1
   141   132   133    1
   142   129   128    1
   143   129   130    1
   144    54    56   ar
   145    55    56   ar
   146    66    59   am
   147   153   151   ar
   148   153   152   ar
   149    70    71    1
   150   151   149   ar
   151   165   164   ar
   152   165   163   ar
   153    57    58    1
   154   125   126    2
   155    59    60    2
   156    59    58    1
   157   152   150   ar
   158   133   134    2
   159   164   162   ar
   160    61    58    1
   161    61    62    1
   162   163   161   ar
   163    64    63    2
   164   149   148   ar
   165    71    72   ar
   166    71    73   ar
   167    63    62    1
   168    63    65   am
   169    72    74   ar
   170   150   148   ar
   171   162   160   ar
   172   148   147    1
   173   161   160   ar
   174    73    75   ar
   175   160   159    1
   176    74    75   ar
   177   147   144    1
   178   143   144    1
   179   144   145    1
   180   155   156    1
   181   159   156    1
   182   156   157    1
   183   146   145    2
   184   157   158    2
