@<TRIPOS>MOLECULE
tmp/1pnfA00.pdb
 153 154 0 0 0
SMALL
GASTEIGER

@<TRIPOS>ATOM
      1  N        -40.5740  -19.9640  -28.7850 N.3    59  TRP59      -0.1227
      2  CA       -40.8570  -19.3290  -30.0670 C.3    59  TRP59       0.1737
      3  C        -39.8740  -19.7600  -31.1500 C.2    59  TRP59       0.2595
      4  O        -38.7830  -20.2500  -30.8540 O.2    59  TRP59      -0.2718
      5  CB       -40.7880  -17.8100  -29.9180 C.3    59  TRP59       0.0564
      6  CG       -41.9510  -17.2540  -29.1930 C.ar   59  TRP59       0.0003
      7  CD1      -42.0610  -17.0240  -27.8450 C.ar   59  TRP59       0.0946
      8  CD2      -43.1930  -16.8840  -29.7660 C.ar   59  TRP59       0.0152
      9  NE1      -43.3070  -16.5240  -27.5510 N.ar   59  TRP59      -0.2442
     10  CE2      -44.0230  -16.4340  -28.7090 C.ar   59  TRP59       0.0810
     11  CE3      -43.6900  -16.8970  -31.0650 C.ar   59  TRP59       0.0012
     12  CZ2      -45.3300  -15.9960  -28.9280 C.ar   59  TRP59       0.0191
     13  CZ3      -44.9870  -16.4640  -31.2850 C.ar   59  TRP59       0.0001
     14  CH2      -45.7990  -16.0180  -30.2200 C.ar   59  TRP59       0.0015
     15  N        -40.2820  -19.6170  -32.4030 N.am   60  ASP60      -0.1960
     16  CA       -39.4010  -19.9280  -33.5140 C.3    60  ASP60       0.1840
     17  C        -38.5630  -18.6580  -33.7390 C.2    60  ASP60       0.2622
     18  O        -38.9990  -17.6970  -34.3740 O.2    60  ASP60      -0.2715
     19  CB       -40.1960  -20.3460  -34.7670 C.3    60  ASP60       0.1450
     20  CG       -41.2640  -19.3350  -35.1890 C.2    60  ASP60       0.3671
     21  OD1      -41.8990  -18.6790  -34.3360 O.co2  60  ASP60      -0.2456
     22  OD2      -41.4840  -19.2280  -36.4130 O.co2  60  ASP60      -0.2456
     23  N        -37.3730  -18.6340  -33.1530 N.am   61  ARG61      -0.1963
     24  CA       -36.5120  -17.4640  -33.2340 C.3    61  ARG61       0.1729
     25  C        -35.4520  -17.4370  -34.3110 C.2    61  ARG61       0.2616
     26  O        -34.9340  -18.4620  -34.7300 O.2    61  ARG61      -0.2715
     27  CB       -35.8090  -17.2330  -31.8950 C.3    61  ARG61       0.0348
     28  CG       -36.7030  -17.1280  -30.6870 C.3    61  ARG61       0.0492
     29  CD       -37.5320  -15.8860  -30.6870 C.3    61  ARG61       0.2205
     30  NE       -38.1270  -15.7270  -29.3640 N.pl3  61  ARG61      -0.0865
     31  CZ       -39.0850  -14.8570  -29.0560 C.cat  61  ARG61       0.5346
     32  NH1      -39.5760  -14.0390  -29.9720 N.pl3  61  ARG61       0.1354
     33  NH2      -39.5410  -14.8170  -27.8130 N.pl3  61  ARG61       0.1354
     34  N        -35.1450  -16.2250  -34.7440 N.am   62  TYR62      -0.1974
     35  CA       -34.0910  -15.9660  -35.7180 C.3    62  TYR62       0.1639
     36  C        -32.7590  -16.2390  -34.9590 C.2    62  TYR62       0.2290
     37  O        -32.6090  -15.8310  -33.7960 O.2    62  TYR62      -0.2864
     38  CB       -34.1830  -14.4910  -36.1390 C.3    62  TYR62       0.0560
     39  CG       -33.1010  -13.9750  -37.0630 C.ar   62  TYR62      -0.0198
     40  CD1      -31.8450  -13.5920  -36.5690 C.ar   62  TYR62      -0.0009
     41  CD2      -33.3530  -13.7900  -38.4120 C.ar   62  TYR62      -0.0009
     42  CE1      -30.8760  -13.0330  -37.4050 C.ar   62  TYR62       0.0417
     43  CE2      -32.3910  -13.2240  -39.2560 C.ar   62  TYR62       0.0417
     44  CZ       -31.1570  -12.8460  -38.7500 C.ar   62  TYR62       0.1957
     45  OH       -30.2330  -12.2500  -39.5890 O.3    62  TYR62      -0.2866
     46  N        -33.8090  -20.8920  -38.1190 N.3    82  ILE82      -0.1245
     47  CA       -34.9130  -20.4540  -37.2890 C.3    82  ILE82       0.1561
     48  C        -35.0960  -21.5790  -36.2770 C.2    82  ILE82       0.2260
     49  O        -35.1720  -22.7490  -36.6610 O.2    82  ILE82      -0.2867
     50  CB       -36.2150  -20.2470  -38.1120 C.3    82  ILE82       0.0252
     51  CG1      -35.9530  -19.3340  -39.3190 C.3    82  ILE82       0.0019
     52  CG2      -37.2750  -19.6120  -37.2360 C.3    82  ILE82       0.0019
     53  CD1      -35.4570  -17.9240  -38.9520 C.3    82  ILE82       0.0001
     54  N        -40.2320  -24.4870  -32.8600 N.3    85  TYR85      -0.1241
     55  CA       -41.1240  -24.1090  -31.7680 C.3    85  TYR85       0.1605
     56  C        -41.0280  -25.2040  -30.7070 C.2    85  TYR85       0.2264
     57  O        -40.9270  -26.3900  -31.0540 O.2    85  TYR85      -0.2867
     58  CB       -42.5930  -24.1190  -32.2150 C.3    85  TYR85       0.0534
     59  CG       -43.0490  -23.0130  -33.1200 C.ar   85  TYR85      -0.0201
     60  CD1      -43.0270  -23.1640  -34.5150 C.ar   85  TYR85      -0.0009
     61  CD2      -43.6360  -21.8640  -32.5870 C.ar   85  TYR85      -0.0009
     62  CE1      -43.5920  -22.2110  -35.3490 C.ar   85  TYR85       0.0417
     63  CE2      -44.2040  -20.9050  -33.4050 C.ar   85  TYR85       0.0417
     64  CZ       -44.1880  -21.0870  -34.7840 C.ar   85  TYR85       0.1957
     65  OH       -44.8430  -20.1770  -35.5780 O.3    85  TYR85      -0.2866
     66  N        -32.3560  -14.4450  -31.3480 N.3   118  GLU118     -0.1245
     67  CA       -33.1800  -13.2860  -31.0270 C.3   118  GLU118      0.1567
     68  C        -34.2110  -13.7000  -29.9850 C.2   118  GLU118      0.2260
     69  O        -35.4160  -13.5450  -30.1770 O.2   118  GLU118     -0.2867
     70  CB       -33.8470  -12.7680  -32.2910 C.3   118  GLU118      0.0388
     71  CG       -34.4060  -11.3640  -32.1630 C.3   118  GLU118      0.1160
     72  CD       -34.9180  -10.8150  -33.4760 C.2   118  GLU118      0.3649
     73  OE1      -34.8760  -11.5490  -34.4800 O.co2 118  GLU118     -0.2457
     74  OE2      -35.3550   -9.6440  -33.5070 O.co2 118  GLU118     -0.2457
     75  N        -36.0310  -13.5610  -26.3070 N.3   120  TRP120     -0.1241
     76  CA       -36.4530  -12.5110  -25.3820 C.3   120  TRP120      0.1605
     77  C        -36.8880  -13.0810  -24.0280 C.2   120  TRP120      0.2264
     78  O        -37.5040  -12.3850  -23.2200 O.2   120  TRP120     -0.2867
     79  CB       -37.5810  -11.6880  -25.9960 C.3   120  TRP120      0.0550
     80  CG       -37.1890  -11.0370  -27.2620 C.ar  120  TRP120      0.0003
     81  CD1      -37.6710  -11.2970  -28.5110 C.ar  120  TRP120      0.0946
     82  CD2      -36.2280   -9.9820  -27.4080 C.ar  120  TRP120      0.0152
     83  NE1      -37.0710  -10.4660  -29.4350 N.ar  120  TRP120     -0.2442
     84  CE2      -36.1760   -9.6550  -28.7820 C.ar  120  TRP120      0.0810
     85  CE3      -35.3980   -9.2990  -26.5150 C.ar  120  TRP120      0.0012
     86  CZ2      -35.3480   -8.6510  -29.2780 C.ar  120  TRP120      0.0191
     87  CZ3      -34.5750   -8.3070  -27.0080 C.ar  120  TRP120      0.0001
     88  CH2      -34.5500   -7.9980  -28.3800 C.ar  120  TRP120      0.0015
     89  N        -33.6080  -10.1720  -36.9340 N.3   155  SER155     -0.1202
     90  CA       -34.6280  -10.2210  -37.9850 C.3   155  SER155      0.2020
     91  C        -35.1500   -8.8280  -38.3030 C.2   155  SER155      0.2618
     92  O        -35.3730   -8.4890  -39.4610 O.2   155  SER155     -0.2717
     93  CB       -35.7790  -11.1290  -37.5680 C.3   155  SER155      0.2103
     94  OG       -36.4330  -10.5930  -36.4350 O.3   155  SER155     -0.2182
     95  N        -35.3180   -8.0130  -37.2730 N.am  156  ILE156     -0.1979
     96  CA       -35.8150   -6.6650  -37.4720 C.3   156  ILE156      0.1595
     97  C        -34.7120   -5.6570  -37.8540 C.2   156  ILE156      0.2287
     98  O        -34.9660   -4.4600  -38.0220 O.2   156  ILE156     -0.2864
     99  CB       -36.6950   -6.2100  -36.2670 C.3   156  ILE156      0.0276
    100  CG1      -35.9150   -6.2540  -34.9470 C.3   156  ILE156      0.0022
    101  CG2      -37.9150   -7.1360  -36.1530 C.3   156  ILE156      0.0022
    102  CD1      -34.9810   -5.0730  -34.7130 C.3   156  ILE156      0.0001
    103  N        -37.4970  -13.2310  -44.4700 N.3   190  GLY190     -0.1210
    104  CA       -38.3960  -12.1220  -44.1970 C.3   190  GLY190      0.1956
    105  C        -39.1250  -12.2050  -42.8700 C.2   190  GLY190      0.2611
    106  O        -39.4980  -13.3070  -42.4150 O.2   190  GLY190     -0.2717
    107  N        -39.3370  -11.0360  -42.2620 N.am  191  TRP191     -0.1976
    108  CA       -40.0100  -10.9010  -40.9690 C.3   191  TRP191      0.1640
    109  C        -41.2440  -10.0390  -41.1450 C.2   191  TRP191      0.2290
    110  O        -41.2350   -9.1390  -41.9680 O.2   191  TRP191     -0.2864
    111  CB       -39.0860  -10.1850  -39.9640 C.3   191  TRP191      0.0576
    112  CG       -39.6020  -10.1380  -38.5320 C.ar  191  TRP191      0.0006
    113  CD1      -39.3030  -11.0210  -37.5230 C.ar  191  TRP191      0.0946
    114  CD2      -40.5120   -9.1740  -37.9500 C.ar  191  TRP191      0.0152
    115  NE1      -39.9570  -10.6710  -36.3690 N.ar  191  TRP191     -0.2442
    116  CE2      -40.7070   -9.5430  -36.6030 C.ar  191  TRP191      0.0810
    117  CE3      -41.1800   -8.0380  -38.4560 C.ar  191  TRP191      0.0012
    118  CZ2      -41.5440   -8.8150  -35.7300 C.ar  191  TRP191      0.0191
    119  CZ3      -42.0120   -7.3140  -37.5870 C.ar  191  TRP191      0.0001
    120  CH2      -42.1860   -7.7090  -36.2400 C.ar  191  TRP191      0.0015
    121  N        -45.8670   -9.4070  -40.7820 N.3   193  HIS193     -0.1241
    122  CA       -47.1340   -9.7610  -41.4110 C.3   193  HIS193      0.1621
    123  C        -47.8230   -8.4550  -41.7740 C.2   193  HIS193      0.2264
    124  O        -49.0160   -8.2590  -41.5590 O.2   193  HIS193     -0.2867
    125  CB       -47.9850  -10.6380  -40.4920 C.3   193  HIS193      0.0745
    126  CG       -48.1590  -10.0940  -39.1180 C.ar  193  HIS193      0.0817
    127  ND1      -48.1030  -10.8820  -37.9920 N.ar  193  HIS193     -0.2268
    128  CD2      -48.4030   -8.8280  -38.6780 C.ar  193  HIS193      0.1154
    129  CE1      -48.3080  -10.1330  -36.9210 C.ar  193  HIS193      0.1986
    130  NE2      -48.4890   -8.8960  -37.3050 N.ar  193  HIS193     -0.2212
    131  N        -42.8040  -12.1770  -43.8510 N.3   206  GLU206     -0.1245
    132  CA       -42.7240  -13.5830  -43.4470 C.3   206  GLU206      0.1567
    133  C        -43.5530  -14.5140  -44.3220 C.2   206  GLU206      0.2260
    134  O        -43.1060  -15.6090  -44.7020 O.2   206  GLU206     -0.2867
    135  CB       -43.1710  -13.7710  -41.9920 C.3   206  GLU206      0.0388
    136  CG       -43.4660  -15.2420  -41.6650 C.3   206  GLU206      0.1160
    137  CD       -43.6840  -15.5380  -40.1920 C.2   206  GLU206      0.3649
    138  OE1      -43.8720  -14.6120  -39.3820 O.co2 206  GLU206     -0.2457
    139  OE2      -43.6830  -16.7270  -39.8400 O.co2 206  GLU206     -0.2457
    140  N        -38.3910  -20.0060  -45.9590 N.3   251  TRP251     -0.1241
    141  CA       -37.8650  -20.5410  -44.7060 C.3   251  TRP251      0.1605
    142  C        -38.9030  -21.3300  -43.9580 C.2   251  TRP251      0.2264
    143  O        -40.0760  -21.3050  -44.3270 O.2   251  TRP251     -0.2867
    144  CB       -37.2480  -19.4480  -43.7830 C.3   251  TRP251      0.0550
    145  CG       -38.1310  -18.2850  -43.2520 C.ar  251  TRP251      0.0003
    146  CD1      -38.2600  -17.0370  -43.8110 C.ar  251  TRP251      0.0946
    147  CD2      -38.8790  -18.2370  -42.0130 C.ar  251  TRP251      0.0152
    148  NE1      -39.0150  -16.2210  -42.9940 N.ar  251  TRP251     -0.2442
    149  CE2      -39.4070  -16.9300  -41.8910 C.ar  251  TRP251      0.0810
    150  CE3      -39.1420  -19.1710  -41.0000 C.ar  251  TRP251      0.0012
    151  CZ2      -40.1900  -16.5310  -40.7950 C.ar  251  TRP251      0.0191
    152  CZ3      -39.9220  -18.7710  -39.9090 C.ar  251  TRP251      0.0001
    153  CH2      -40.4330  -17.4600  -39.8150 C.ar  251  TRP251      0.0015
@<TRIPOS>BOND
     1   140   141    1
     2   141   142    1
     3   141   144    1
     4   134   133    2
     5   103   104    1
     6   143   142    2
     7   133   132    1
     8   104   105    1
     9   131   132    1
    10   146   145   ar
    11   146   148   ar
    12   144   145    1
    13   132   135    1
    14   145   147   ar
    15   148   149   ar
    16   105   106    2
    17   105   107   am
    18   107   108    1
    19   147   149   ar
    20   147   150   ar
    21   135   136    1
    22   110   109    2
    23   149   151   ar
    24   123   124    2
    25   123   122    1
    26   136   137    1
    27   122   121    1
    28   122   125    1
    29   109   108    1
    30   150   152   ar
    31   108   111    1
    32   151   153   ar
    33   125   126    1
    34   137   139   ar
    35   137   138   ar
    36   111   112    1
    37   152   153   ar
    38    45    44    1
    39    92    91    2
    40    51    53    1
    41    51    50    1
    42    43    44   ar
    43    43    41   ar
    44   126   128   ar
    45   126   127   ar
    46    44    42   ar
    47   128   130   ar
    48   112   114   ar
    49   112   113   ar
    50   117   114   ar
    51   117   119   ar
    52    41    39   ar
    53    91    90    1
    54    91    95   am
    55    46    47    1
    56    50    47    1
    57    50    52    1
    58    98    97    2
    59   127   129   ar
    60    90    93    1
    61    90    89    1
    62   114   116   ar
    63    97    96    1
    64   119   120   ar
    65    93    94    1
    66   113   115   ar
    67    96    95    1
    68    96    99    1
    69    42    40   ar
    70   130   129   ar
    71    47    48    1
    72    39    40   ar
    73    39    38    1
    74    49    48    2
    75   116   115   ar
    76   116   118   ar
    77    22    20   ar
    78    99   101    1
    79    99   100    1
    80   120   118   ar
    81    38    35    1
    82    35    36    1
    83    35    34    1
    84    65    64    1
    85    62    64   ar
    86    62    60   ar
    87    20    19    1
    88    20    21   ar
    89    36    37    2
    90   100   102    1
    91    64    63   ar
    92    19    16    1
    93    34    25   am
    94    26    25    2
    95    60    59   ar
    96    73    72   ar
    97    18    17    2
    98    25    24    1
    99    17    16    1
   100    17    23   am
   101    16    15    1
   102    74    72   ar
   103    72    71    1
   104    63    61   ar
   105    24    23    1
   106    24    27    1
   107    59    61   ar
   108    59    58    1
   109    54    55    1
   110    15     3   am
   111    70    71    1
   112    70    67    1
   113    58    55    1
   114    27    28    1
   115    55    56    1
   116    66    67    1
   117    13    11   ar
   118    13    14   ar
   119     3     4    2
   120     3     2    1
   121    11     8   ar
   122    57    56    2
   123    67    68    1
   124    29    28    1
   125    29    30    1
   126    14    12   ar
   127    69    68    2
   128     2     5    1
   129     2     1    1
   130    32    31    1
   131     5     6    1
   132     8     6   ar
   133     8    10   ar
   134    83    84   ar
   135    83    81   ar
   136    30    31    2
   137    86    84   ar
   138    86    88   ar
   139     6     7   ar
   140    31    33    1
   141    12    10   ar
   142    84    82   ar
   143    10     9   ar
   144    81    80   ar
   145    88    87   ar
   146     7     9   ar
   147    82    80   ar
   148    82    85   ar
   149    80    79    1
   150    87    85   ar
   151    75    76    1
   152    79    76    1
   153    76    77    1
   154    77    78    2
