@<TRIPOS>MOLECULE
tmp/1pnmB00.pdb
 110 108 0 0 0
SMALL
GASTEIGER

@<TRIPOS>ATOM
      1  N         13.6680   42.3380   34.4540 N.3     1  SER1       -0.1217
      2  CA        13.1410   41.9960   33.1560 C.3     1  SER1        0.1889
      3  C         12.1310   43.1120   32.9040 C.2     1  SER1        0.2288
      4  O         11.1960   43.2710   33.7000 O.2     1  SER1       -0.2866
      5  CB        12.3910   40.6930   33.0110 C.3     1  SER1        0.2089
      6  OG        13.2800   39.6010   33.0010 O.3     1  SER1       -0.2183
      7  N         13.6350   40.3480   28.5540 N.3    22  PRO22      -0.2102
      8  CA        13.7030   39.3880   29.6800 C.3    22  PRO22       0.1504
      9  C         15.1620   39.3350   30.1030 C.2    22  PRO22       0.2576
     10  O         16.0590   39.2480   29.2360 O.2    22  PRO22      -0.2718
     11  CB        13.1920   38.0950   29.1250 C.3    22  PRO22       0.0282
     12  CG        13.6030   38.1910   27.6500 C.3    22  PRO22       0.0208
     13  CD        13.2770   39.6320   27.3110 C.3    22  PRO22       0.0893
     14  N         15.4170   39.4130   31.4030 N.am   23  GLN23      -0.1966
     15  CA        16.7870   39.4720   31.9640 C.3    23  GLN23       0.1733
     16  C         17.1250   38.2400   32.7630 C.2    23  GLN23       0.2616
     17  O         16.6370   38.0480   33.9080 O.2    23  GLN23      -0.2715
     18  CB        17.0120   40.7390   32.8170 C.3    23  GLN23       0.0408
     19  CG        17.0190   42.0140   31.9770 C.3    23  GLN23       0.0908
     20  CD        17.2740   43.3140   32.6990 C.2    23  GLN23       0.2608
     21  OE1       16.4350   43.7610   33.4840 O.2    23  GLN23      -0.2717
     22  NE2       18.4290   43.9800   32.4980 N.am   23  GLN23      -0.0878
     23  N         17.9590   37.3930   32.1630 N.am   24  PHE24      -0.1974
     24  CA        18.2710   36.1340   32.8380 C.3    24  PHE24       0.1639
     25  C         19.7590   35.9170   33.0180 C.2    24  PHE24       0.2290
     26  O         20.1140   34.8160   33.5060 O.2    24  PHE24      -0.2864
     27  CB        17.6830   34.9840   32.0070 C.3    24  PHE24       0.0560
     28  CG        16.2590   34.8770   31.5690 C.ar   24  PHE24      -0.0200
     29  CD1       15.1740   34.4770   32.3500 C.ar   24  PHE24      -0.0042
     30  CD2       16.0210   35.1980   30.2170 C.ar   24  PHE24      -0.0042
     31  CE1       13.8930   34.3800   31.7750 C.ar   24  PHE24      -0.0003
     32  CE2       14.7530   35.1120   29.6370 C.ar   24  PHE24      -0.0003
     33  CZ        13.6670   34.7130   30.4330 C.ar   24  PHE24      -0.0000
     34  N          7.7740   31.6060   25.1410 N.3    56  VAL56      -0.1231
     35  CA         7.5420   32.6840   26.1720 C.3    56  VAL56       0.1692
     36  C          7.4260   34.0020   25.4380 C.2    56  VAL56       0.2592
     37  O          6.7140   34.9560   25.8130 O.2    56  VAL56      -0.2718
     38  CB         8.5680   32.5730   27.3130 C.3    56  VAL56       0.0266
     39  CG1        8.3870   33.6790   28.3470 C.3    56  VAL56       0.0020
     40  CG2        8.6190   31.2170   27.9970 C.3    56  VAL56       0.0020
     41  N          8.2180   34.1970   24.3460 N.am   57  PHE57      -0.1976
     42  CA         8.2260   35.4500   23.5480 C.3    57  PHE57       0.1639
     43  C          7.9340   35.1980   22.0600 C.2    57  PHE57       0.2290
     44  O          8.6980   34.4370   21.4100 O.2    57  PHE57      -0.2864
     45  CB         9.5480   36.2520   23.7240 C.3    57  PHE57       0.0560
     46  CG        10.2150   36.1030   25.0710 C.ar   57  PHE57      -0.0200
     47  CD1        9.6810   36.7560   26.1960 C.ar   57  PHE57      -0.0042
     48  CD2       11.2600   35.1840   25.2320 C.ar   57  PHE57      -0.0042
     49  CE1       10.2300   36.5360   27.4520 C.ar   57  PHE57      -0.0003
     50  CE2       11.8370   34.9570   26.4760 C.ar   57  PHE57      -0.0003
     51  CZ        11.2900   35.6150   27.5730 C.ar   57  PHE57      -0.0000
     52  N          6.4560   38.1840   28.7870 N.3    67  SER67      -0.1202
     53  CA         6.5480   37.9970   30.2230 C.3    67  SER67       0.2020
     54  C          7.6110   38.7400   30.9970 C.2    67  SER67       0.2619
     55  O          8.6390   39.1610   30.3920 O.2    67  SER67      -0.2717
     56  CB         7.0130   36.5020   30.2730 C.3    67  SER67       0.2103
     57  OG         5.9700   35.7010   30.7930 O.3    67  SER67      -0.2182
     58  N          7.5150   38.9480   32.2980 N.am   68  THR68      -0.1938
     59  CA         8.5060   39.5410   33.2230 C.3    68  THR68       0.2028
     60  C          8.2810   38.8390   34.5640 C.2    68  THR68       0.2642
     61  O          7.1260   38.4530   34.8180 O.2    68  THR68      -0.2714
     62  CB         8.5930   41.0770   33.3780 C.3    68  THR68       0.1808
     63  OG1        7.3700   41.5330   34.0500 O.3    68  THR68      -0.2208
     64  CG2        8.7430   41.9160   32.0880 C.3    68  THR68       0.0379
     65  N          9.2740   38.5740   35.3520 N.am   69  ALA69      -0.1977
     66  CA         9.1400   37.8680   36.6690 C.3    69  ALA69       0.1597
     67  C          8.1420   38.6320   37.5330 C.2    69  ALA69       0.2287
     68  O          8.1690   39.8760   37.5280 O.2    69  ALA69      -0.2864
     69  CB        10.5500   37.6730   37.1560 C.3    69  ALA69       0.0319
     70  N          7.2190   38.3260   41.1520 N.3    71  PHE71      -0.1241
     71  CA         7.6820   38.5140   42.5250 C.3    71  PHE71       0.1605
     72  C          6.5710   38.6570   43.5650 C.2    71  PHE71       0.2264
     73  O          6.7750   39.4120   44.5520 O.2    71  PHE71      -0.2867
     74  CB         8.7310   39.6450   42.6960 C.3    71  PHE71       0.0534
     75  CG        10.0300   39.2150   42.0860 C.ar   71  PHE71      -0.0203
     76  CD1       10.8820   38.4030   42.8490 C.ar   71  PHE71      -0.0042
     77  CD2       10.3940   39.6070   40.7930 C.ar   71  PHE71      -0.0042
     78  CE1       12.1190   37.9710   42.3320 C.ar   71  PHE71      -0.0003
     79  CE2       11.6100   39.1960   40.2600 C.ar   71  PHE71      -0.0003
     80  CZ        12.4530   38.3740   41.0110 C.ar   71  PHE71      -0.0000
     81  N          1.2480   27.8250   28.9460 N.3   154  TRP154     -0.1241
     82  CA         2.2360   28.5440   28.1660 C.3   154  TRP154      0.1605
     83  C          2.2560   28.0920   26.6770 C.2   154  TRP154      0.2264
     84  O          2.5820   28.9140   25.7870 O.2   154  TRP154     -0.2867
     85  CB         3.6780   28.4600   28.7650 C.3   154  TRP154      0.0550
     86  CG         4.2550   29.8150   29.0020 C.ar  154  TRP154      0.0003
     87  CD1        4.3530   30.8830   28.1530 C.ar  154  TRP154      0.0946
     88  CD2        4.8120   30.2510   30.2480 C.ar  154  TRP154      0.0152
     89  NE1        4.9010   31.9520   28.7920 N.ar  154  TRP154     -0.2442
     90  CE2        5.1970   31.5980   30.0900 C.ar  154  TRP154      0.0810
     91  CE3        5.0060   29.6310   31.4890 C.ar  154  TRP154      0.0012
     92  CZ2        5.7890   32.3140   31.1270 C.ar  154  TRP154      0.0191
     93  CZ3        5.5770   30.3260   32.5270 C.ar  154  TRP154      0.0001
     94  CH2        5.9670   31.6480   32.3350 C.ar  154  TRP154      0.0015
     95  N          4.2480   35.2350   37.6340 N.3   177  ILE177     -0.1245
     96  CA         4.7740   35.8150   36.3950 C.3   177  ILE177      0.1561
     97  C          3.8480   36.8840   35.8130 C.2   177  ILE177      0.2260
     98  O          2.6130   36.6640   35.7350 O.2   177  ILE177     -0.2867
     99  CB         4.9670   34.7050   35.2430 C.3   177  ILE177      0.0252
    100  CG1        5.7010   33.3900   35.5930 C.3   177  ILE177      0.0019
    101  CG2        5.6250   35.2800   33.9550 C.3   177  ILE177      0.0019
    102  CD1        7.2020   33.4310   35.9930 C.3   177  ILE177      0.0001
    103  N          9.8830   44.6910   36.8420 N.3   241  ASN241     -0.1240
    104  CA         9.7150   43.8600   38.0400 C.3   241  ASN241      0.1653
    105  C          9.2520   44.6710   39.2970 C.2   241  ASN241      0.2266
    106  O          9.5620   44.3570   40.4620 O.2   241  ASN241     -0.2867
    107  CB        10.9080   43.0120   38.4390 C.3   241  ASN241      0.1155
    108  CG        11.5870   42.1810   37.4000 C.2   241  ASN241      0.2627
    109  OD1       12.7880   42.3520   37.1850 O.2   241  ASN241     -0.2716
    110  ND2       10.8650   41.3360   36.7050 N.am  241  ASN241     -0.0877
@<TRIPOS>BOND
     1    44    43    2
     2    43    42    1
     3    42    45    1
     4    42    41    1
     5    45    46    1
     6    41    36   am
     7    46    48   ar
     8    46    47   ar
     9    34    35    1
    10    48    50   ar
    11    36    37    2
    12    36    35    1
    13    84    83    2
    14    35    38    1
    15    47    49   ar
    16    50    51   ar
    17    83    82    1
    18    13    12    1
    19    13     7    1
    20    38    40    1
    21    38    39    1
    22    49    51   ar
    23    12    11    1
    24    87    89   ar
    25    87    86   ar
    26    82    85    1
    27    82    81    1
    28     7     8    1
    29    85    86    1
    30    52    53    1
    31    89    90   ar
    32    86    88   ar
    33    11     8    1
    34    10     9    2
    35    32    30   ar
    36    32    33   ar
    37     8     9    1
    38    90    88   ar
    39    90    92   ar
    40     9    14   am
    41    30    28   ar
    42    53    56    1
    43    53    54    1
    44    88    91   ar
    45    56    57    1
    46    55    54    2
    47    33    31   ar
    48    54    58   am
    49    92    94   ar
    50    14    15    1
    51    91    93   ar
    52    28    27    1
    53    28    29   ar
    54    31    29   ar
    55    15    16    1
    56    15    18    1
    57    19    20    1
    58    19    18    1
    59    27    24    1
    60    64    62    1
    61    23    16   am
    62    23    24    1
    63    58    59    1
    64    94    93   ar
    65    22    20   am
    66    20    21    2
    67    16    17    2
    68    24    25    1
    69     3     2    1
    70     3     4    2
    71     6     5    1
    72     5     2    1
    73    25    26    2
    74     2     1    1
    75    59    62    1
    76    59    60    1
    77    62    63    1
    78   101    99    1
    79    60    61    2
    80    60    65   am
    81    99   100    1
    82    99    96    1
    83    65    66    1
    84   100   102    1
    85    98    97    2
    86    97    96    1
    87    96    95    1
    88    66    69    1
    89    66    67    1
    90   110   108   am
    91   103   104    1
    92   109   108    2
    93   108   107    1
    94    68    67    2
    95   104   107    1
    96   104   105    1
    97   105   106    2
    98    79    77   ar
    99    79    80   ar
   100    77    75   ar
   101    80    78   ar
   102    70    71    1
   103    75    74    1
   104    75    76   ar
   105    78    76   ar
   106    71    74    1
   107    71    72    1
   108    72    73    2
