@<TRIPOS>MOLECULE
tmp/1pnvA00.pdb
 190 178 0 0 0
SMALL
GASTEIGER

@<TRIPOS>ATOM
      1  N         44.4800   85.9660   23.2030 N.3    10  SER10      -0.1202
      2  CA        44.4930   84.5350   22.9130 C.3    10  SER10       0.2020
      3  C         43.0790   83.9890   22.9600 C.2    10  SER10       0.2619
      4  O         42.1230   84.7410   23.1540 O.2    10  SER10      -0.2717
      5  CB        45.3740   83.7970   23.9200 C.3    10  SER10       0.2103
      6  OG        45.0360   84.1410   25.2500 O.3    10  SER10      -0.2182
      7  N         42.9350   82.6830   22.7800 N.am   11  ARG11      -0.1965
      8  CA        41.6120   82.0970   22.8090 C.3    11  ARG11       0.1729
      9  C         40.9480   82.2190   24.1890 C.2    11  ARG11       0.2616
     10  O         39.7180   82.2920   24.2860 O.2    11  ARG11      -0.2715
     11  CB        41.6630   80.6360   22.3730 C.3    11  ARG11       0.0348
     12  CG        40.2940   80.0140   22.4310 C.3    11  ARG11       0.0492
     13  CD        40.1430   78.7910   21.5750 C.3    11  ARG11       0.2205
     14  NE        38.7290   78.4450   21.4710 N.pl3  11  ARG11      -0.0865
     15  CZ        38.2660   77.4050   20.7920 C.cat  11  ARG11       0.5346
     16  NH1       39.1140   76.6080   20.1590 N.pl3  11  ARG11       0.1354
     17  NH2       36.9620   77.1680   20.7380 N.pl3  11  ARG11       0.1354
     18  N         41.7580   82.2610   25.2460 N.am   12  GLY12      -0.1955
     19  CA        41.2300   82.3820   26.5960 C.3    12  GLY12       0.1869
     20  C         40.6510   83.7510   26.9200 C.2    12  GLY12       0.2309
     21  O         39.8290   83.8930   27.8300 O.2    12  GLY12      -0.2863
     22  N         37.0790   83.3290   24.2590 N.3    15  GLU15      -0.1231
     23  CA        35.9970   82.4000   24.5800 C.3    15  GLU15       0.1684
     24  C         34.9960   82.9390   25.6060 C.2    15  GLU15       0.2434
     25  O         33.7870   82.7760   25.4390 O.2    15  GLU15      -0.2733
     26  CB        36.5550   81.0590   25.0590 C.3    15  GLU15       0.0402
     27  CG        36.8870   80.0820   23.9420 C.3    15  GLU15       0.1161
     28  CD        35.6720   79.7190   23.0780 C.2    15  GLU15       0.3649
     29  OE1       34.5770   79.4640   23.6440 O.co2  15  GLU15      -0.2457
     30  OE2       35.8170   79.6770   21.8280 O.co2  15  GLU15      -0.2457
     31  N         35.4780   83.5820   26.6800 N.am   16  PRO16      -0.2729
     32  CA        34.5340   84.1070   27.6690 C.3    16  PRO16       0.1401
     33  C         33.6520   85.2130   27.0780 C.2    16  PRO16       0.2269
     34  O         32.4680   85.3160   27.4070 O.2    16  PRO16      -0.2865
     35  CB        35.4450   84.5970   28.7850 C.3    16  PRO16       0.0296
     36  CG        36.6710   84.9940   28.0430 C.3    16  PRO16       0.0237
     37  CD        36.8630   83.8810   27.0680 C.3    16  PRO16       0.0939
     38  N         34.9530   80.2570   14.6520 N.3    42  ARG42      -0.1245
     39  CA        34.4630   79.9620   15.9940 C.3    42  ARG42       0.1563
     40  C         33.1550   80.6940   16.2820 C.2    42  ARG42       0.2260
     41  O         32.2430   80.1270   16.8760 O.2    42  ARG42      -0.2867
     42  CB        35.5190   80.3440   17.0380 C.3    42  ARG42       0.0307
     43  CG        35.1150   80.0860   18.4810 C.3    42  ARG42       0.0489
     44  CD        34.5970   78.6740   18.6450 C.3    42  ARG42       0.2205
     45  NE        34.0330   78.4350   19.9690 N.pl3  42  ARG42      -0.0865
     46  CZ        33.0840   77.5360   20.2170 C.cat  42  ARG42       0.5346
     47  NH1       32.6230   77.3700   21.4510 N.pl3  42  ARG42       0.1354
     48  NH2       32.5800   76.8150   19.2230 N.pl3  42  ARG42       0.1354
     49  N         40.5500   88.3680   33.5920 N.3   124  LEU124     -0.1245
     50  CA        40.1670   86.9970   33.8990 C.3   124  LEU124      0.1561
     51  C         40.8230   86.4450   35.1660 C.2   124  LEU124      0.2260
     52  O         40.4470   85.3840   35.6560 O.2   124  LEU124     -0.2867
     53  CB        40.4670   86.1000   32.6940 C.3   124  LEU124      0.0270
     54  CG        39.8230   86.5440   31.3740 C.3   124  LEU124      0.0019
     55  CD1       40.2780   85.6470   30.2550 C.3   124  LEU124      0.0001
     56  CD2       38.3170   86.4990   31.4860 C.3   124  LEU124      0.0001
     57  N         28.7530   74.1190   26.1570 N.3   205  ASP205     -0.1239
     58  CA        29.0720   73.4660   24.8820 C.3   205  ASP205      0.1674
     59  C         28.2190   72.2170   24.6740 C.2   205  ASP205      0.2266
     60  O         28.0250   71.4290   25.5990 O.2   205  ASP205     -0.2867
     61  CB        30.5600   73.0730   24.8470 C.3   205  ASP205      0.1410
     62  CG        31.0830   72.8410   23.4270 C.2   205  ASP205      0.3668
     63  OD1       30.3080   72.3690   22.5710 O.co2 205  ASP205     -0.2456
     64  OD2       32.2770   73.1160   23.1720 O.co2 205  ASP205     -0.2456
     65  N         28.6510   70.5670   21.4840 N.3   207  ARG207     -0.1245
     66  CA        29.3180   69.8680   20.3940 C.3   207  ARG207      0.1563
     67  C         29.7620   68.4610   20.8030 C.2   207  ARG207      0.2260
     68  O         30.3400   68.2530   21.8770 O.2   207  ARG207     -0.2867
     69  CB        30.5380   70.6450   19.9330 C.3   207  ARG207      0.0307
     70  CG        30.2470   71.9510   19.2700 C.3   207  ARG207      0.0489
     71  CD        31.5540   72.6310   18.9760 C.3   207  ARG207      0.2205
     72  NE        32.2320   73.0160   20.2060 N.pl3 207  ARG207     -0.0865
     73  CZ        33.5120   73.3640   20.2730 C.cat 207  ARG207      0.5346
     74  NH1       34.0400   73.7090   21.4400 N.pl3 207  ARG207      0.1354
     75  NH2       34.2650   73.3550   19.1770 N.pl3 207  ARG207      0.1354
     76  N         44.6470   63.8630   29.9940 N.3   225  TYR225     -0.1241
     77  CA        44.7020   64.9330   29.0050 C.3   225  TYR225      0.1605
     78  C         45.9660   65.7600   29.1230 C.2   225  TYR225      0.2264
     79  O         46.3940   66.1110   30.2160 O.2   225  TYR225     -0.2867
     80  CB        43.4700   65.8390   29.1420 C.3   225  TYR225      0.0534
     81  CG        43.5330   67.1210   28.3280 C.ar  225  TYR225     -0.0201
     82  CD1       44.1580   68.2580   28.8320 C.ar  225  TYR225     -0.0009
     83  CD2       42.9840   67.1900   27.0450 C.ar  225  TYR225     -0.0009
     84  CE1       44.2380   69.4280   28.0840 C.ar  225  TYR225      0.0417
     85  CE2       43.0620   68.3520   26.2960 C.ar  225  TYR225      0.0417
     86  CZ        43.6930   69.4630   26.8240 C.ar  225  TYR225      0.1957
     87  OH        43.8060   70.6070   26.0860 O.3   225  TYR225     -0.2866
     88  N         46.8040   74.8030   25.2770 N.3   229  GLY229     -0.1210
     89  CA        46.0890   75.8660   24.5960 C.3   229  GLY229      0.1956
     90  C         46.8920   76.7990   23.7090 C.2   229  GLY229      0.2613
     91  O         47.6780   76.3520   22.8800 O.2   229  GLY229     -0.2717
     92  N         46.7060   78.0990   23.8980 N.am  230  SER230     -0.1938
     93  CA        47.3700   79.1090   23.0870 C.3   230  SER230      0.2055
     94  C         48.8740   79.2530   23.2780 C.2   230  SER230      0.2643
     95  O         49.4940   80.1100   22.6410 O.2   230  SER230     -0.2714
     96  CB        46.7040   80.4710   23.2990 C.3   230  SER230      0.2130
     97  OG        45.3190   80.4260   23.0030 O.3   230  SER230     -0.2179
     98  N         49.4650   78.4390   24.1500 N.am  231  SER231     -0.1949
     99  CA        50.9170   78.4900   24.3620 C.3   231  SER231      0.1924
    100  C         51.5860   78.1500   23.0270 C.2   231  SER231      0.2314
    101  O         51.2100   77.1740   22.3730 O.2   231  SER231     -0.2863
    102  CB        51.3500   77.4640   25.4110 C.3   231  SER231      0.2116
    103  OG        50.5710   77.5610   26.5880 O.3   231  SER231     -0.2180
    104  N         46.1470   67.7470   22.7430 N.3   257  SER257     -0.1217
    105  CA        45.5590   68.8240   21.9580 C.3   257  SER257      0.1889
    106  C         46.6510   69.5180   21.1890 C.2   257  SER257      0.2288
    107  O         47.6510   69.9260   21.7720 O.2   257  SER257     -0.2866
    108  CB        44.8760   69.8480   22.8600 C.3   257  SER257      0.2089
    109  OG        43.7810   69.2710   23.5380 O.3   257  SER257     -0.2183
    110  N         46.6970   72.4180   20.0100 N.3   259  GLY259     -0.1225
    111  CA        46.8580   73.7630   20.5220 C.3   259  GLY259      0.1811
    112  C         47.4520   74.6780   19.4690 C.2   259  GLY259      0.2280
    113  O         47.5640   74.3180   18.2950 O.2   259  GLY259     -0.2866
    114  N         42.0980   68.3850   17.5700 N.3   276  GLY276     -0.1210
    115  CA        42.2530   69.7820   17.2190 C.3   276  GLY276      0.1956
    116  C         41.2110   70.5050   18.0470 C.2   276  GLY276      0.2612
    117  O         41.2660   70.4900   19.2790 O.2   276  GLY276     -0.2717
    118  N         40.2500   71.1320   17.3810 N.am  277  GLU277     -0.1965
    119  CA        39.1810   71.8120   18.0900 C.3   277  GLU277      0.1733
    120  C         38.4030   70.7130   18.7950 C.2   277  GLU277      0.2616
    121  O         38.2670   69.6170   18.2670 O.2   277  GLU277     -0.2715
    122  CB        38.2690   72.5400   17.1030 C.3   277  GLU277      0.0429
    123  CG        37.0770   73.2410   17.7470 C.3   277  GLU277      0.1163
    124  CD        37.4870   74.2170   18.8380 C.2   277  GLU277      0.3649
    125  OE1       38.5410   74.8730   18.6750 O.co2 277  GLU277     -0.2457
    126  OE2       36.7510   74.3360   19.8470 O.co2 277  GLU277     -0.2457
    127  N         37.9070   70.9800   19.9910 N.am  278  VAL278     -0.1977
    128  CA        37.1480   69.9580   20.6820 C.3   278  VAL278      0.1596
    129  C         36.4150   70.5370   21.8820 C.2   278  VAL278      0.2287
    130  O         36.8080   71.5680   22.4340 O.2   278  VAL278     -0.2864
    131  CB        38.0670   68.7850   21.1410 C.3   278  VAL278      0.0276
    132  CG1       38.9490   69.2180   22.2960 C.3   278  VAL278      0.0022
    133  CG2       37.2270   67.5870   21.5320 C.3   278  VAL278      0.0022
    134  N         36.1580   70.7480   25.1620 N.3   280  LEU280     -0.1231
    135  CA        36.9260   70.3940   26.3510 C.3   280  LEU280      0.1693
    136  C         35.9830   70.0170   27.4890 C.2   280  LEU280      0.2591
    137  O         36.2330   69.0580   28.2120 O.2   280  LEU280     -0.2718
    138  CB        37.8370   71.5450   26.8020 C.3   280  LEU280      0.0284
    139  CG        39.2350   71.6530   26.1850 C.3   280  LEU280      0.0019
    140  CD1       40.0020   72.7640   26.8810 C.3   280  LEU280      0.0001
    141  CD2       39.9840   70.3420   26.3400 C.3   280  LEU280      0.0001
    142  N         34.9020   70.7730   27.6500 N.am  281  GLN281     -0.1979
    143  CA        33.9370   70.4870   28.7040 C.3   281  GLN281      0.1601
    144  C         33.5020   69.0280   28.6390 C.2   281  GLN281      0.2287
    145  O         33.3320   68.3630   29.6690 O.2   281  GLN281     -0.2864
    146  CB        32.7200   71.4010   28.5620 C.3   281  GLN281      0.0394
    147  CG        32.9470   72.7930   29.0990 C.3   281  GLN281      0.0908
    148  CD        31.8960   73.7730   28.6400 C.2   281  GLN281      0.2608
    149  OE1       30.6970   73.4910   28.7000 O.2   281  GLN281     -0.2717
    150  NE2       32.3370   74.9410   28.1830 N.am  281  GLN281     -0.0878
    151  N         48.7810   74.0530   30.8940 N.3   293  HIS293     -0.1241
    152  CA        49.4430   75.2930   31.2440 C.3   293  HIS293      0.1621
    153  C         48.6820   76.0800   32.2990 C.2   293  HIS293      0.2264
    154  O         47.6000   75.6810   32.7490 O.2   293  HIS293     -0.2867
    155  CB        49.6490   76.1580   29.9960 C.3   293  HIS293      0.0745
    156  CG        48.3820   76.5360   29.2970 C.ar  293  HIS293      0.0817
    157  ND1       47.3540   75.6430   29.0830 N.ar  293  HIS293     -0.2268
    158  CD2       48.0050   77.6930   28.7060 C.ar  293  HIS293      0.1154
    159  CE1       46.3980   76.2350   28.3880 C.ar  293  HIS293      0.1986
    160  NE2       46.7690   77.4790   28.1460 N.ar  293  HIS293     -0.2212
    161  N         46.4500   78.7170   33.0470 N.3   295  SER295     -0.1202
    162  CA        45.4810   79.5770   32.3900 C.3   295  SER295      0.2020
    163  C         44.1200   79.5750   33.0810 C.2   295  SER295      0.2619
    164  O         43.6390   78.5290   33.5270 O.2   295  SER295     -0.2717
    165  CB        45.3060   79.1460   30.9360 C.3   295  SER295      0.2103
    166  OG        44.5910   77.9220   30.8700 O.3   295  SER295     -0.2182
    167  N         43.5070   80.7540   33.1480 N.am  296  ALA296     -0.1965
    168  CA        42.2010   80.9290   33.7750 C.3   296  ALA296      0.1728
    169  C         41.1320   79.9840   33.2200 C.2   296  ALA296      0.2617
    170  O         40.4500   79.2900   33.9760 O.2   296  ALA296     -0.2715
    171  CB        41.7450   82.3860   33.6100 C.3   296  ALA296      0.0334
    172  N         41.0050   79.9480   31.8980 N.am  297  GLY297     -0.1940
    173  CA        39.9920   79.1210   31.2670 C.3   297  GLY297      0.2014
    174  C         40.0590   77.6220   31.4600 C.2   297  GLY297      0.2639
    175  O         39.0900   77.0060   31.8990 O.2   297  GLY297     -0.2714
    176  N         41.1900   77.0190   31.1210 N.am  298  THR298     -0.1950
    177  CA        41.3250   75.5790   31.2660 C.3   298  THR298      0.1897
    178  C         41.3100   75.1190   32.7260 C.2   298  THR298      0.2313
    179  O         40.6980   74.1010   33.0510 O.2   298  THR298     -0.2863
    180  CB        42.6090   75.0810   30.5880 C.3   298  THR298      0.1794
    181  OG1       42.6320   75.5350   29.2280 O.3   298  THR298     -0.2208
    182  CG2       42.6540   73.5660   30.5960 C.3   298  THR298      0.0378
    183  N         37.6810   74.9710   33.6750 N.3   301  LEU301     -0.1245
    184  CA        36.9000   73.9480   32.9900 C.3   301  LEU301      0.1561
    185  C         37.2030   72.5920   33.5740 C.2   301  LEU301      0.2260
    186  O         36.3290   71.7350   33.6560 O.2   301  LEU301     -0.2867
    187  CB        37.2040   73.9180   31.4940 C.3   301  LEU301      0.0270
    188  CG        36.5670   75.0180   30.6450 C.3   301  LEU301      0.0019
    189  CD1       36.8430   74.7300   29.1840 C.3   301  LEU301      0.0001
    190  CD2       35.0610   75.0690   30.8940 C.3   301  LEU301      0.0001
@<TRIPOS>BOND
     1    38    39    1
     2    39    40    1
     3    39    42    1
     4    40    41    2
     5    42    43    1
     6   122   123    1
     7   122   119    1
     8   115   114    1
     9   115   116    1
    10   118   116   am
    11   118   119    1
    12   123   124    1
    13   116   117    2
    14   119   120    1
    15   121   120    2
    16   113   112    2
    17    43    44    1
    18    44    45    1
    19   125   124   ar
    20   120   127   am
    21   124   126   ar
    22    71    70    1
    23    71    72    1
    24    75    73    1
    25    48    46    1
    26    70    69    1
    27   112   111    1
    28    69    66    1
    29    45    46    2
    30   127   128    1
    31   110   111    1
    32    16    15    1
    33    72    73    2
    34    46    47    1
    35    73    74    1
    36    66    67    1
    37    66    65    1
    38   128   131    1
    39   128   129    1
    40    17    15    1
    41    15    14    2
    42    67    68    2
    43   131   133    1
    44   131   132    1
    45   106   107    2
    46   106   105    1
    47    14    13    1
    48    13    12    1
    49    30    28   ar
    50   129   130    2
    51   105   104    1
    52   105   108    1
    53   101   100    2
    54    11    12    1
    55    11     8    1
    56    63    62   ar
    57    95    94    2
    58     7     8    1
    59     7     3   am
    60     8     9    1
    61   108   109    1
    62    91    90    2
    63     2     3    1
    64     2     1    1
    65     2     5    1
    66     3     4    2
    67    97    96    1
    68   100    99    1
    69    28    29   ar
    70    28    27    1
    71    93    94    1
    72    93    96    1
    73    93    92    1
    74    64    62   ar
    75    94    98   am
    76    62    61    1
    77    90    92   am
    78    90    89    1
    79     5     6    1
    80    27    26    1
    81    98    99    1
    82     9    10    2
    83     9    18   am
    84    22    23    1
    85    99   102    1
    86    23    26    1
    87    23    24    1
    88    89    88    1
    89    59    58    1
    90    59    60    2
    91    61    58    1
    92    58    57    1
    93   134   135    1
    94    18    19    1
    95   102   103    1
    96    25    24    2
    97    24    31   am
    98    87    86    1
    99   139   141    1
   100   139   138    1
   101   139   140    1
   102    85    86   ar
   103    85    83   ar
   104   135   138    1
   105   135   136    1
   106    19    20    1
   107    31    37    1
   108    31    32    1
   109    86    84   ar
   110    20    21    2
   111    83    81   ar
   112    37    36    1
   113    33    34    2
   114    33    32    1
   115   136   142   am
   116   136   137    2
   117   142   143    1
   118    32    35    1
   119    36    35    1
   120    84    82   ar
   121   160   159   ar
   122   160   158   ar
   123   150   148   am
   124    81    82   ar
   125    81    80    1
   126   159   157   ar
   127   146   143    1
   128   146   147    1
   129   144   143    1
   130   144   145    2
   131   148   149    2
   132   148   147    1
   133   158   156   ar
   134    77    78    1
   135    77    80    1
   136    77    76    1
   137   157   156   ar
   138    78    79    2
   139   189   188    1
   140   181   180    1
   141   156   155    1
   142   155   152    1
   143    55    54    1
   144   180   182    1
   145   180   177    1
   146   188   190    1
   147   188   187    1
   148   166   165    1
   149   151   152    1
   150   165   162    1
   151   176   177    1
   152   176   174   am
   153   152   153    1
   154   177   178    1
   155   173   174    1
   156   173   172    1
   157    54    56    1
   158    54    53    1
   159   174   175    2
   160   187   184    1
   161   172   169   am
   162   153   154    2
   163   162   161    1
   164   162   163    1
   165    53    50    1
   166   178   179    2
   167   184   185    1
   168   184   183    1
   169   163   167   am
   170   163   164    2
   171   167   168    1
   172   169   168    1
   173   169   170    2
   174   185   186    2
   175    49    50    1
   176   171   168    1
   177    50    51    1
   178    51    52    2
