@<TRIPOS>MOLECULE
tmp/1po0A00.pdb
 119 108 0 0 0
SMALL
GASTEIGER

@<TRIPOS>ATOM
      1  N         18.5510    5.2530    3.8870 N.3    58  THR58      -0.1218
      2  CA        18.6550    3.8050    4.0140 C.3    58  THR58       0.1862
      3  C         18.2330    3.3900    5.4170 C.2    58  THR58       0.2287
      4  O         17.6610    2.3190    5.6120 O.2    58  THR58      -0.2866
      5  CB        20.0960    3.3440    3.7400 C.3    58  THR58       0.1770
      6  OG1       20.4890    3.8110    2.4410 O.3    58  THR58      -0.2211
      7  CG2       20.2000    1.8160    3.7930 C.3    58  THR58       0.0375
      8  N         24.5320    9.3410    8.9770 N.3    75  ARG75      -0.1231
      9  CA        23.9360    8.2460    8.2250 C.3    75  ARG75       0.1694
     10  C         24.4290    6.8590    8.6400 C.2    75  ARG75       0.2591
     11  O         25.5790    6.4950    8.4010 O.2    75  ARG75      -0.2718
     12  CB        24.1590    8.4420    6.7190 C.3    75  ARG75       0.0321
     13  CG        23.5960    7.2960    5.8730 C.3    75  ARG75       0.0489
     14  CD        23.7690    7.5290    4.3660 C.3    75  ARG75       0.2205
     15  NE        23.2000    6.4310    3.5800 N.pl3  75  ARG75      -0.0865
     16  CZ        23.7910    5.2540    3.3800 C.cat  75  ARG75       0.5346
     17  NH1       24.9880    5.0030    3.9020 N.pl3  75  ARG75       0.1354
     18  NH2       23.1750    4.3210    2.6660 N.pl3  75  ARG75       0.1354
     19  N         23.5370    6.0950    9.2650 N.am   76  LEU76      -0.1980
     20  CA        23.8240    4.7430    9.7210 C.3    76  LEU76       0.1596
     21  C         24.9650    4.6140   10.7410 C.2    76  LEU76       0.2287
     22  O         25.6140    3.5680   10.8350 O.2    76  LEU76      -0.2864
     23  CB        24.0600    3.8340    8.5090 C.3    76  LEU76       0.0297
     24  CG        22.8560    3.7550    7.5580 C.3    76  LEU76       0.0022
     25  CD1       23.1390    2.7650    6.4400 C.3    76  LEU76       0.0001
     26  CD2       21.6220    3.3330    8.3290 C.3    76  LEU76       0.0001
     27  N         22.6870   -0.3750    9.2000 N.3   100  SER100     -0.1217
     28  CA        21.3970   -0.4680    8.5290 C.3   100  SER100      0.1889
     29  C         20.5730   -1.3500    9.4590 C.2   100  SER100      0.2288
     30  O         19.3450   -1.2780    9.4870 O.2   100  SER100     -0.2866
     31  CB        21.5350   -1.0870    7.1220 C.3   100  SER100      0.2089
     32  OG        22.2860   -2.2930    7.1210 O.3   100  SER100     -0.2183
     33  N         12.6350   -3.3370    5.2550 N.3   253  PHE253     -0.1241
     34  CA        13.8770   -3.8270    5.7960 C.3   253  PHE253      0.1605
     35  C         13.6430   -4.8630    6.8770 C.2   253  PHE253      0.2264
     36  O         12.6550   -4.8120    7.6190 O.2   253  PHE253     -0.2867
     37  CB        14.6870   -2.6720    6.3760 C.3   253  PHE253      0.0534
     38  CG        16.0680   -3.0620    6.7810 C.ar  253  PHE253     -0.0203
     39  CD1       17.0720   -3.1620    5.8410 C.ar  253  PHE253     -0.0042
     40  CD2       16.3530   -3.3850    8.1010 C.ar  253  PHE253     -0.0042
     41  CE1       18.3460   -3.5760    6.2030 C.ar  253  PHE253     -0.0003
     42  CE2       17.6240   -3.8000    8.4700 C.ar  253  PHE253     -0.0003
     43  CZ        18.6180   -3.8950    7.5170 C.ar  253  PHE253     -0.0000
     44  N         20.7470   -9.2240    7.1420 N.3   285  ARG285     -0.1245
     45  CA        20.0350   -7.9780    6.9380 C.3   285  ARG285      0.1563
     46  C         19.6670   -7.9290    5.4670 C.2   285  ARG285      0.2260
     47  O         20.5190   -8.0220    4.5900 O.2   285  ARG285     -0.2867
     48  CB        20.8780   -6.7630    7.3440 C.3   285  ARG285      0.0307
     49  CG        22.2610   -6.6970    6.7510 C.3   285  ARG285      0.0489
     50  CD        22.4130   -5.4330    5.9450 C.3   285  ARG285      0.2205
     51  NE        21.6810   -5.5200    4.6860 N.pl3 285  ARG285     -0.0865
     52  CZ        21.4030   -4.4770    3.9150 C.cat 285  ARG285      0.5346
     53  NH1       21.7920   -3.2570    4.2750 N.pl3 285  ARG285      0.1354
     54  NH2       20.7410   -4.6550    2.7810 N.pl3 285  ARG285      0.1354
     55  N         16.6060   -6.3100    2.4440 N.3   287  GLY287     -0.1225
     56  CA        15.6150   -5.2880    2.2210 C.3   287  GLY287      0.1811
     57  C         15.2070   -5.1290    0.7810 C.2   287  GLY287      0.2280
     58  O         15.9540   -5.4670   -0.1440 O.2   287  GLY287     -0.2866
     59  N         14.1420   -2.5080   -2.1090 N.3   289  LEU289     -0.1245
     60  CA        14.4310   -1.1170   -2.3830 C.3   289  LEU289      0.1561
     61  C         14.0950   -0.8040   -3.8270 C.2   289  LEU289      0.2260
     62  O         14.5230   -1.5050   -4.7510 O.2   289  LEU289     -0.2867
     63  CB        15.9080   -0.8200   -2.1140 C.3   289  LEU289      0.0270
     64  CG        16.3150    0.6520   -2.2670 C.3   289  LEU289      0.0019
     65  CD1       15.6130    1.4900   -1.2030 C.3   289  LEU289      0.0001
     66  CD2       17.8150    0.7890   -2.1450 C.3   289  LEU289      0.0001
     67  N         14.6310    1.0140   -7.0630 N.3   291  GLN291     -0.1245
     68  CA        15.7700    1.6850   -7.6750 C.3   291  GLN291      0.1566
     69  C         15.5080    1.9270   -9.1500 C.2   291  GLN291      0.2260
     70  O         15.6690    1.0260   -9.9730 O.2   291  GLN291     -0.2867
     71  CB        17.0370    0.8410   -7.5060 C.3   291  GLN291      0.0367
     72  CG        17.3730    0.5280   -6.0630 C.3   291  GLN291      0.0905
     73  CD        18.7870    0.0070   -5.8980 C.2   291  GLN291      0.2608
     74  OE1       19.7490    0.6710   -6.2830 O.2   291  GLN291     -0.2717
     75  NE2       18.9210   -1.1810   -5.3210 N.am  291  GLN291     -0.0878
     76  N         18.1200   -7.0970   -1.3570 N.3   298  SER298     -0.1217
     77  CA        19.5310   -7.1750   -1.0080 C.3   298  SER298      0.1889
     78  C         19.8880   -7.9770    0.2370 C.2   298  SER298      0.2288
     79  O         20.2140   -7.4040    1.2850 O.2   298  SER298     -0.2866
     80  CB        20.0870   -5.7560   -0.8690 C.3   298  SER298      0.2089
     81  OG        19.9880   -5.0670   -2.1020 O.3   298  SER298     -0.2183
     82  N         22.0210   -9.7460    2.7920 N.3   300  ARG300     -0.1245
     83  CA        23.4250   -9.6460    3.1480 C.3   300  ARG300      0.1563
     84  C         23.6170  -10.3990    4.4500 C.2   300  ARG300      0.2260
     85  O         22.9370  -10.1340    5.4420 O.2   300  ARG300     -0.2867
     86  CB        23.8470   -8.1830    3.2890 C.3   300  ARG300      0.0307
     87  CG        23.7250   -7.3990    1.9940 C.3   300  ARG300      0.0489
     88  CD        24.1460   -5.9490    2.1660 C.3   300  ARG300      0.2205
     89  NE        23.8280   -5.1590    0.9800 N.pl3 300  ARG300     -0.0865
     90  CZ        23.9670   -3.8390    0.8980 C.cat 300  ARG300      0.5346
     91  NH1       24.4210   -3.1510    1.9370 N.pl3 300  ARG300      0.1354
     92  NH2       23.6590   -3.2080   -0.2260 N.pl3 300  ARG300      0.1354
     93  N         22.0670   -9.1620   -4.7850 N.3   339  ARG339     -0.1245
     94  CA        20.9940   -8.2410   -5.0840 C.3   339  ARG339      0.1563
     95  C         20.1500   -8.8780   -6.1620 C.2   339  ARG339      0.2260
     96  O         20.6190   -9.1150   -7.2750 O.2   339  ARG339     -0.2867
     97  CB        21.5180   -6.8860   -5.5710 C.3   339  ARG339      0.0307
     98  CG        20.3990   -5.8420   -5.7210 C.3   339  ARG339      0.0489
     99  CD        20.9300   -4.4570   -6.0710 C.3   339  ARG339      0.2205
    100  NE        21.4550   -4.4010   -7.4300 N.pl3 339  ARG339     -0.0865
    101  CZ        22.0340   -3.3310   -7.9660 C.cat 339  ARG339      0.5346
    102  NH1       22.1680   -2.2160   -7.2560 N.pl3 339  ARG339      0.1354
    103  NH2       22.4810   -3.3720   -9.2150 N.pl3 339  ARG339      0.1354
    104  N         20.3770    8.6560   -0.8090 N.3   640  ASP640     -0.1225
    105  CA        19.7550    7.3560   -0.9520 C.3   640  ASP640      0.1805
    106  C         18.5860    7.3560   -1.9300 C.2   640  ASP640      0.2597
    107  O         18.0650    8.4110   -2.2950 O.2   640  ASP640     -0.2718
    108  CB        19.3730    6.8130    0.4300 C.3   640  ASP640      0.1424
    109  CG        20.6040    6.5580    1.2980 C.2   640  ASP640      0.3668
    110  OD1       21.6110    6.0660    0.7390 O.co2 640  ASP640     -0.2456
    111  OD2       20.5790    6.8410    2.5200 O.co2 640  ASP640     -0.2456
    112  N         18.2000    6.1650   -2.3740 N.am  641  ASN641     -0.1974
    113  CA        17.1170    6.0200   -3.3390 C.3   641  ASN641      0.1688
    114  C         15.7860    6.5580   -2.8530 C.2   641  ASN641      0.2292
    115  O         14.9490    6.9420   -3.6570 O.2   641  ASN641     -0.2864
    116  CB        16.9810    4.5530   -3.7460 C.3   641  ASN641      0.1181
    117  CG        18.0980    4.1090   -4.6780 C.2   641  ASN641      0.2629
    118  OD1       18.1310    4.4890   -5.8520 O.2   641  ASN641     -0.2716
    119  ND2       19.0260    3.3150   -4.1560 N.am  641  ASN641     -0.0877
@<TRIPOS>BOND
     1    70    69    2
     2   103   101    1
     3    69    68    1
     4   101   100    2
     5   101   102    1
     6    68    71    1
     7    68    67    1
     8    71    72    1
     9   100    99    1
    10    96    95    2
    11    74    73    2
    12    95    94    1
    13    99    98    1
    14    72    73    1
    15    73    75   am
    16   118   117    2
    17    98    97    1
    18    97    94    1
    19    94    93    1
    20    62    61    2
    21   117   119   am
    22   117   116    1
    23    61    60    1
    24   116   113    1
    25   115   114    2
    26   113   114    1
    27   113   112    1
    28    60    63    1
    29    60    59    1
    30   112   106   am
    31   107   106    2
    32    64    66    1
    33    64    63    1
    34    64    65    1
    35    81    80    1
    36   106   105    1
    37    76    77    1
    38    77    80    1
    39    77    78    1
    40   105   104    1
    41   105   108    1
    42    92    90    1
    43    58    57    2
    44    78    79    2
    45   108   109    1
    46   110   109   ar
    47    57    56    1
    48    90    89    2
    49    90    91    1
    50    89    88    1
    51   109   111   ar
    52    87    88    1
    53    87    86    1
    54    56    55    1
    55     6     5    1
    56    18    16    1
    57    54    52    1
    58    82    83    1
    59    83    86    1
    60    83    84    1
    61    16    15    2
    62    16    17    1
    63    15    14    1
    64     5     7    1
    65     5     2    1
    66     1     2    1
    67    52    53    1
    68    52    51    2
    69     2     3    1
    70    14    13    1
    71    84    85    2
    72    47    46    2
    73    51    50    1
    74    33    34    1
    75     3     4    2
    76    46    45    1
    77    34    37    1
    78    34    35    1
    79    39    41   ar
    80    39    38   ar
    81    13    12    1
    82    50    49    1
    83    41    43   ar
    84    37    38    1
    85    25    24    1
    86    12     9    1
    87    49    48    1
    88    38    40   ar
    89    35    36    2
    90    45    44    1
    91    45    48    1
    92    32    31    1
    93    31    28    1
    94    43    42   ar
    95    24    26    1
    96    24    23    1
    97    40    42   ar
    98     9    10    1
    99     9     8    1
   100    11    10    2
   101    23    20    1
   102    28    27    1
   103    28    29    1
   104    10    19   am
   105    19    20    1
   106    29    30    2
   107    20    21    1
   108    21    22    2
