@<TRIPOS>MOLECULE
tmp/1po0A01.pdb
 114 106 0 0 0
SMALL
GASTEIGER

@<TRIPOS>ATOM
      1  N         18.5510    5.2530    3.8870 N.3    58  THR58      -0.1218
      2  CA        18.6550    3.8050    4.0140 C.3    58  THR58       0.1862
      3  C         18.2330    3.3900    5.4170 C.2    58  THR58       0.2287
      4  O         17.6610    2.3190    5.6120 O.2    58  THR58      -0.2866
      5  CB        20.0960    3.3440    3.7400 C.3    58  THR58       0.1770
      6  OG1       20.4890    3.8110    2.4410 O.3    58  THR58      -0.2211
      7  CG2       20.2000    1.8160    3.7930 C.3    58  THR58       0.0375
      8  N         24.5320    9.3410    8.9770 N.3    75  ARG75      -0.1231
      9  CA        23.9360    8.2460    8.2250 C.3    75  ARG75       0.1694
     10  C         24.4290    6.8590    8.6400 C.2    75  ARG75       0.2591
     11  O         25.5790    6.4950    8.4010 O.2    75  ARG75      -0.2718
     12  CB        24.1590    8.4420    6.7190 C.3    75  ARG75       0.0321
     13  CG        23.5960    7.2960    5.8730 C.3    75  ARG75       0.0489
     14  CD        23.7690    7.5290    4.3660 C.3    75  ARG75       0.2205
     15  NE        23.2000    6.4310    3.5800 N.pl3  75  ARG75      -0.0865
     16  CZ        23.7910    5.2540    3.3800 C.cat  75  ARG75       0.5346
     17  NH1       24.9880    5.0030    3.9020 N.pl3  75  ARG75       0.1354
     18  NH2       23.1750    4.3210    2.6660 N.pl3  75  ARG75       0.1354
     19  N         23.5370    6.0950    9.2650 N.am   76  LEU76      -0.1980
     20  CA        23.8240    4.7430    9.7210 C.3    76  LEU76       0.1596
     21  C         24.9650    4.6140   10.7410 C.2    76  LEU76       0.2287
     22  O         25.6140    3.5680   10.8350 O.2    76  LEU76      -0.2864
     23  CB        24.0600    3.8340    8.5090 C.3    76  LEU76       0.0297
     24  CG        22.8560    3.7550    7.5580 C.3    76  LEU76       0.0022
     25  CD1       23.1390    2.7650    6.4400 C.3    76  LEU76       0.0001
     26  CD2       21.6220    3.3330    8.3290 C.3    76  LEU76       0.0001
     27  N         32.0650   -2.8630    6.8870 N.3    96  GLN96      -0.1245
     28  CA        30.8530   -2.1230    6.5540 C.3    96  GLN96       0.1566
     29  C         30.1270   -1.8080    7.8500 C.2    96  GLN96       0.2260
     30  O         29.1300   -2.4380    8.1880 O.2    96  GLN96      -0.2867
     31  CB        29.9610   -2.9790    5.6370 C.3    96  GLN96       0.0367
     32  CG        29.2260   -2.1910    4.5620 C.3    96  GLN96       0.0905
     33  CD        30.1700   -1.5600    3.5530 C.2    96  GLN96       0.2608
     34  OE1       30.6700   -2.2270    2.6480 O.2    96  GLN96      -0.2717
     35  NE2       30.4260   -0.2640    3.7120 N.am   96  GLN96      -0.0878
     36  N         28.1410    0.4880    8.6600 N.3    98  GLN98      -0.1245
     37  CA        26.8370    1.1360    8.5560 C.3    98  GLN98       0.1566
     38  C         25.7850    0.3110    9.2790 C.2    98  GLN98       0.2260
     39  O         25.5200   -0.8450    8.9230 O.2    98  GLN98      -0.2867
     40  CB        26.4150    1.2990    7.0990 C.3    98  GLN98       0.0367
     41  CG        27.1550    2.3750    6.3370 C.3    98  GLN98       0.0905
     42  CD        28.5190    1.9310    5.8920 C.2    98  GLN98       0.2608
     43  OE1       28.8330    0.7410    5.9200 O.2    98  GLN98      -0.2717
     44  NE2       29.3390    2.8830    5.4550 N.am   98  GLN98      -0.0878
     45  N         22.0210   -9.7460    2.7920 N.3   300  ARG300     -0.1245
     46  CA        23.4250   -9.6460    3.1480 C.3   300  ARG300      0.1563
     47  C         23.6170  -10.3990    4.4500 C.2   300  ARG300      0.2260
     48  O         22.9370  -10.1340    5.4420 O.2   300  ARG300     -0.2867
     49  CB        23.8470   -8.1830    3.2890 C.3   300  ARG300      0.0307
     50  CG        23.7250   -7.3990    1.9940 C.3   300  ARG300      0.0489
     51  CD        24.1460   -5.9490    2.1660 C.3   300  ARG300      0.2205
     52  NE        23.8280   -5.1590    0.9800 N.pl3 300  ARG300     -0.0865
     53  CZ        23.9670   -3.8390    0.8980 C.cat 300  ARG300      0.5346
     54  NH1       24.4210   -3.1510    1.9370 N.pl3 300  ARG300      0.1354
     55  NH2       23.6590   -3.2080   -0.2260 N.pl3 300  ARG300      0.1354
     56  N         26.2480  -11.8310    7.4790 N.3   302  TYR302     -0.1241
     57  CA        27.5090  -11.5390    8.1190 C.3   302  TYR302      0.1605
     58  C         27.8020  -12.4760    9.2740 C.2   302  TYR302      0.2264
     59  O         26.8990  -12.9340    9.9760 O.2   302  TYR302     -0.2867
     60  CB        27.5240  -10.0920    8.6180 C.3   302  TYR302      0.0534
     61  CG        27.2300   -9.0700    7.5430 C.ar  302  TYR302     -0.0201
     62  CD1       25.9190   -8.7960    7.1470 C.ar  302  TYR302     -0.0009
     63  CD2       28.2650   -8.3770    6.9180 C.ar  302  TYR302     -0.0009
     64  CE1       25.6470   -7.8510    6.1510 C.ar  302  TYR302      0.0417
     65  CE2       28.0040   -7.4310    5.9200 C.ar  302  TYR302      0.0417
     66  CZ        26.6950   -7.1750    5.5430 C.ar  302  TYR302      0.1957
     67  OH        26.4430   -6.2500    4.5550 O.3   302  TYR302     -0.2866
     68  N         26.8460  -10.8080    0.0290 N.3   337  GLU337     -0.1245
     69  CA        25.8140   -9.8900   -0.4320 C.3   337  GLU337      0.1567
     70  C         25.3370  -10.2610   -1.8320 C.2   337  GLU337      0.2260
     71  O         26.1270  -10.5920   -2.7130 O.2   337  GLU337     -0.2867
     72  CB        26.3200   -8.4430   -0.4720 C.3   337  GLU337      0.0388
     73  CG        26.8560   -7.8910    0.8260 C.3   337  GLU337      0.1160
     74  CD        28.3230   -8.1900    1.0190 C.2   337  GLU337      0.3649
     75  OE1       29.0660   -8.2430    0.0030 O.co2 337  GLU337     -0.2457
     76  OE2       28.7370   -8.3540    2.1850 O.co2 337  GLU337     -0.2457
     77  N         24.1190   -9.0300   -8.5630 N.3   358  ARG358     -0.1245
     78  CA        25.1550   -8.8490   -7.5590 C.3   358  ARG358      0.1563
     79  C         25.3000  -10.0940   -6.7030 C.2   358  ARG358      0.2260
     80  O         24.3260  -10.6230   -6.1750 O.2   358  ARG358     -0.2867
     81  CB        24.8740   -7.6550   -6.6450 C.3   358  ARG358      0.0307
     82  CG        25.9180   -7.5620   -5.5370 C.3   358  ARG358      0.0489
     83  CD        25.7430   -6.3960   -4.5880 C.3   358  ARG358      0.2205
     84  NE        26.7680   -6.4530   -3.5490 N.pl3 358  ARG358     -0.0865
     85  CZ        26.9330   -5.5380   -2.6000 C.cat 358  ARG358      0.5346
     86  NH1       26.1340   -4.4780   -2.5500 N.pl3 358  ARG358      0.1354
     87  NH2       27.9050   -5.6800   -1.7070 N.pl3 358  ARG358      0.1354
     88  N         37.1150   -8.4670   -1.1520 N.3   395  GLN395     -0.1245
     89  CA        35.7920   -8.4820   -1.7410 C.3   395  GLN395      0.1566
     90  C         35.8730   -9.3000   -3.0150 C.2   395  GLN395      0.2260
     91  O         36.6060   -8.9490   -3.9380 O.2   395  GLN395     -0.2867
     92  CB        35.2910   -7.0820   -2.0830 C.3   395  GLN395      0.0367
     93  CG        33.8930   -7.1400   -2.7010 C.3   395  GLN395      0.0905
     94  CD        33.3150   -5.7830   -3.0320 C.2   395  GLN395      0.2608
     95  OE1       33.9080   -5.0060   -3.7800 O.2   395  GLN395     -0.2717
     96  NE2       32.1440   -5.4960   -2.4850 N.am  395  GLN395     -0.0878
     97  N         34.2890   -2.2940    2.6150 N.3   440  TYR440     -0.1227
     98  CA        34.1900   -3.2150    1.4860 C.3   440  TYR440      0.1736
     99  C         33.7330   -2.4650    0.2420 C.2   440  TYR440      0.2596
    100  O         34.2540   -2.6780   -0.8490 O.2   440  TYR440     -0.2718
    101  CB        33.2120   -4.3570    1.7960 C.3   440  TYR440      0.0548
    102  CG        33.6170   -5.2000    2.9830 C.ar  440  TYR440     -0.0200
    103  CD1       34.9480   -5.5770    3.1730 C.ar  440  TYR440     -0.0009
    104  CD2       32.6710   -5.6390    3.9050 C.ar  440  TYR440     -0.0009
    105  CE1       35.3250   -6.3700    4.2510 C.ar  440  TYR440      0.0417
    106  CE2       33.0390   -6.4350    4.9870 C.ar  440  TYR440      0.0417
    107  CZ        34.3670   -6.7950    5.1520 C.ar  440  TYR440      0.1957
    108  OH        34.7400   -7.5790    6.2180 O.3   440  TYR440     -0.2866
    109  N         32.7680   -1.5710    0.4210 N.am  441  SER441     -0.1952
    110  CA        32.2360   -0.7810   -0.6840 C.3   441  SER441      0.1924
    111  C         33.2790    0.1660   -1.2620 C.2   441  SER441      0.2314
    112  O         33.1120    0.6910   -2.3650 O.2   441  SER441     -0.2863
    113  CB        31.0300    0.0310   -0.2110 C.3   441  SER441      0.2116
    114  OG        31.4030    0.9420    0.8140 O.3   441  SER441     -0.2180
@<TRIPOS>BOND
     1    77    78    1
     2    78    79    1
     3    78    81    1
     4    79    80    2
     5    81    82    1
     6    82    83    1
     7    83    84    1
     8    91    90    2
     9    95    94    2
    10    84    85    2
    11    94    93    1
    12    94    96   am
    13    90    89    1
    14    71    70    2
    15    93    92    1
    16    85    86    1
    17    85    87    1
    18   112   111    2
    19    92    89    1
    20    70    69    1
    21    89    88    1
    22   111   110    1
    23   100    99    2
    24   110   113    1
    25   110   109    1
    26    72    69    1
    27    72    73    1
    28    69    68    1
    29    55    53    1
    30   113   114    1
    31    75    74   ar
    32    99   109   am
    33    99    98    1
    34    73    74    1
    35    53    52    2
    36    53    54    1
    37    52    51    1
    38    74    76   ar
    39    98   101    1
    40    98    97    1
    41   101   102    1
    42    50    51    1
    43    50    49    1
    44     6     5    1
    45    34    33    2
    46    18    16    1
    47    45    46    1
    48   102   103   ar
    49   102   104   ar
    50    46    49    1
    51    46    47    1
    52   103   105   ar
    53    16    15    2
    54    16    17    1
    55    33    35   am
    56    33    32    1
    57    15    14    1
    58     5     7    1
    59     5     2    1
    60     1     2    1
    61   104   106   ar
    62     2     3    1
    63   105   107   ar
    64    14    13    1
    65    47    48    2
    66    67    66    1
    67    32    31    1
    68   106   107   ar
    69   107   108    1
    70     3     4    2
    71    44    42   am
    72    66    65   ar
    73    66    64   ar
    74    31    28    1
    75    13    12    1
    76    42    43    2
    77    42    41    1
    78    65    63   ar
    79    64    62   ar
    80    41    40    1
    81    25    24    1
    82    28    27    1
    83    28    29    1
    84    12     9    1
    85    63    61   ar
    86    40    37    1
    87    62    61   ar
    88    56    57    1
    89    61    60    1
    90    24    26    1
    91    24    23    1
    92    29    30    2
    93    57    60    1
    94    57    58    1
    95     9    10    1
    96     9     8    1
    97    11    10    2
    98    23    20    1
    99    37    36    1
   100    37    38    1
   101    10    19   am
   102    39    38    2
   103    19    20    1
   104    58    59    2
   105    20    21    1
   106    21    22    2
