@<TRIPOS>MOLECULE
tmp/1po3A00.pdb
 139 124 0 0 0
SMALL
GASTEIGER

@<TRIPOS>ATOM
      1  N         13.5440  -10.1570   32.1090 N.3    44  THR44      -0.1218
      2  CA        14.8650   -9.6540   32.4620 C.3    44  THR44       0.1862
      3  C         14.8210   -9.4780   33.9520 C.2    44  THR44       0.2287
      4  O         15.7360   -9.8510   34.6630 O.2    44  THR44      -0.2866
      5  CB        15.1750   -8.2890   31.8370 C.3    44  THR44       0.1770
      6  OG1       15.0970   -8.3740   30.4100 O.3    44  THR44      -0.2211
      7  CG2       16.5670   -7.8610   32.2160 C.3    44  THR44       0.0375
      8  N          7.1740   -3.4150   33.6420 N.3    61  ARG61      -0.1245
      9  CA         8.4300   -4.1300   33.5140 C.3    61  ARG61       0.1563
     10  C          9.5700   -3.2390   33.9480 C.2    61  ARG61       0.2260
     11  O          9.8410   -2.2390   33.3090 O.2    61  ARG61      -0.2867
     12  CB         8.6810   -4.5650   32.0770 C.3    61  ARG61       0.0307
     13  CG        10.1300   -4.9400   31.8100 C.3    61  ARG61       0.0489
     14  CD        10.2530   -5.7290   30.5380 C.3    61  ARG61       0.2205
     15  NE        11.6110   -6.1700   30.2440 N.pl3  61  ARG61      -0.0865
     16  CZ        12.6370   -5.3580   30.0420 C.cat  61  ARG61       0.5346
     17  NH1       12.4720   -4.0460   30.1060 N.pl3  61  ARG61       0.1354
     18  NH2       13.8290   -5.8580   29.7600 N.pl3  61  ARG61       0.1354
     19  N         16.9020   -2.9040   36.1840 N.3    86  SER86      -0.1217
     20  CA        17.3750   -4.2790   36.0350 C.3    86  SER86       0.1889
     21  C         17.8720   -4.5740   37.4260 C.2    86  SER86       0.2288
     22  O         17.5820   -5.6150   37.9860 O.2    86  SER86      -0.2866
     23  CB        18.5490   -4.3610   35.0660 C.3    86  SER86       0.2089
     24  OG        18.6890   -3.1660   34.3270 O.3    86  SER86      -0.2183
     25  N         18.0290  -16.6730   37.4830 N.3   216  MET216     -0.1245
     26  CA        16.7430  -16.3430   36.9160 C.3   216  MET216      0.1570
     27  C         16.0470  -17.5740   36.3680 C.2   216  MET216      0.2261
     28  O         16.6060  -18.3070   35.5690 O.2   216  MET216     -0.2867
     29  CB        16.9470  -15.3180   35.8030 C.3   216  MET216      0.0387
     30  CG        17.7030  -14.0600   36.2290 C.3   216  MET216      0.0595
     31  SD        18.7640  -13.3370   34.9390 S.3   216  MET216     -0.1393
     32  CE        17.6150  -12.2590   34.1210 C.3   216  MET216      0.0692
     33  N         21.9460  -13.2210   36.9990 N.3   239  PHE239     -0.1241
     34  CA        22.0310  -11.7600   37.1380 C.3   239  PHE239      0.1605
     35  C         22.6640  -11.3650   38.4570 C.2   239  PHE239      0.2264
     36  O         22.2310  -11.8430   39.4950 O.2   239  PHE239     -0.2867
     37  CB        20.6470  -11.1270   37.1020 C.3   239  PHE239      0.0534
     38  CG        20.6600   -9.6550   36.8070 C.ar  239  PHE239     -0.0203
     39  CD1       20.7190   -9.2050   35.4950 C.ar  239  PHE239     -0.0042
     40  CD2       20.6060   -8.7210   37.8300 C.ar  239  PHE239     -0.0042
     41  CE1       20.7180   -7.8660   35.2030 C.ar  239  PHE239     -0.0003
     42  CE2       20.6060   -7.3630   37.5420 C.ar  239  PHE239     -0.0003
     43  CZ        20.6610   -6.9380   36.2230 C.ar  239  PHE239     -0.0000
     44  N         26.0100   -3.7430   37.0630 N.3   271  ARG271     -0.1245
     45  CA        25.0820   -4.8310   36.9320 C.3   271  ARG271      0.1563
     46  C         25.4050   -5.4760   35.6220 C.2   271  ARG271      0.2260
     47  O         25.6340   -4.8000   34.6310 O.2   271  ARG271     -0.2867
     48  CB        23.6740   -4.2940   36.8640 C.3   271  ARG271      0.0307
     49  CG        23.5330   -3.1740   35.8670 C.3   271  ARG271      0.0489
     50  CD        22.4680   -3.4730   34.8500 C.3   271  ARG271      0.2205
     51  NE        22.9370   -4.4160   33.8440 N.pl3 271  ARG271     -0.0865
     52  CZ        22.1360   -5.0940   33.0260 C.cat 271  ARG271      0.5346
     53  NH1       20.8110   -4.9250   33.1020 N.pl3 271  ARG271      0.1354
     54  NH2       22.6620   -5.9450   32.1400 N.pl3 271  ARG271      0.1354
     55  N         25.3500   -9.8020   33.7930 N.3   273  GLY273     -0.1225
     56  CA        24.7220  -11.0870   33.9840 C.3   273  GLY273      0.1811
     57  C         24.6330  -11.9190   32.7330 C.2   273  GLY273      0.2280
     58  O         24.7720  -11.4160   31.6120 O.2   273  GLY273     -0.2866
     59  N         22.6670  -14.4280   30.1140 N.3   275  LEU275     -0.1245
     60  CA        21.3690  -14.5410   29.5010 C.3   275  LEU275      0.1561
     61  C         21.5210  -15.3430   28.2180 C.2   275  LEU275      0.2260
     62  O         22.5890  -15.3450   27.5820 O.2   275  LEU275     -0.2867
     63  CB        20.8310  -13.1490   29.1920 C.3   275  LEU275      0.0270
     64  CG        19.3630  -13.1860   28.8120 C.3   275  LEU275      0.0019
     65  CD1       18.5890  -13.9140   29.8690 C.3   275  LEU275      0.0001
     66  CD2       18.8430  -11.7950   28.6580 C.3   275  LEU275      0.0001
     67  N         20.3970  -15.6710   24.5310 N.3   277  GLN277     -0.1245
     68  CA        19.7690  -14.9360   23.4580 C.3   277  GLN277      0.1566
     69  C         19.9360  -15.6620   22.1480 C.2   277  GLN277      0.2260
     70  O         20.9210  -15.4730   21.4510 O.2   277  GLN277     -0.2867
     71  CB        20.3590  -13.5320   23.3540 C.3   277  GLN277      0.0367
     72  CG        20.2720  -12.7070   24.6450 C.3   277  GLN277      0.0905
     73  CD        20.7310  -11.2730   24.4560 C.2   277  GLN277      0.2608
     74  OE1       20.0300  -10.4610   23.8620 O.2   277  GLN277     -0.2717
     75  NE2       21.9160  -10.9620   24.9490 N.am  277  GLN277     -0.0878
     76  N         26.7040   -9.4830   29.7470 N.3   284  SER284     -0.1217
     77  CA        26.4310   -8.0720   29.5390 C.3   284  SER284      0.1889
     78  C         26.6980   -7.1800   30.7420 C.2   284  SER284      0.2288
     79  O         25.8140   -6.9300   31.5510 O.2   284  SER284     -0.2866
     80  CB        24.9780   -7.9020   29.0930 C.3   284  SER284      0.2089
     81  OG        24.6230   -8.8160   28.0730 O.3   284  SER284     -0.2183
     82  N         27.4290   -3.6560   32.6970 N.3   286  ARG286     -0.1245
     83  CA        26.9720   -2.2920   32.5220 C.3   286  ARG286      0.1563
     84  C         27.2470   -1.4590   33.7630 C.2   286  ARG286      0.2260
     85  O         26.6010   -1.6380   34.7970 O.2   286  ARG286     -0.2867
     86  CB        25.4810   -2.2920   32.2220 C.3   286  ARG286      0.0307
     87  CG        25.1380   -2.8760   30.8760 C.3   286  ARG286      0.0489
     88  CD        23.6810   -2.6590   30.5530 C.3   286  ARG286      0.2205
     89  NE        23.3790   -3.0540   29.1840 N.pl3 286  ARG286     -0.0865
     90  CZ        22.2710   -3.6880   28.8100 C.cat 286  ARG286      0.5346
     91  NH1       21.3390   -4.0130   29.6960 N.pl3 286  ARG286      0.1354
     92  NH2       22.0960   -4.0050   27.5400 N.pl3 286  ARG286      0.1354
     93  N         28.8880   -6.1550   25.6310 N.3   325  ARG325     -0.1245
     94  CA        28.1670   -7.4030   25.4070 C.3   325  ARG325      0.1563
     95  C         29.0500   -8.4740   24.8130 C.2   325  ARG325      0.2260
     96  O         29.4150   -8.3940   23.6400 O.2   325  ARG325     -0.2867
     97  CB        27.0020   -7.1570   24.4490 C.3   325  ARG325      0.0307
     98  CG        25.8040   -8.0600   24.6570 C.3   325  ARG325      0.0489
     99  CD        25.3510   -8.6940   23.3510 C.3   325  ARG325      0.2205
    100  NE        24.0940   -8.1670   22.7870 N.pl3 325  ARG325     -0.0865
    101  CZ        23.5710   -8.5640   21.6190 C.cat 325  ARG325      0.5346
    102  NH1       24.1940   -9.4940   20.8790 N.pl3 325  ARG325      0.1354
    103  NH2       22.4240   -8.0400   21.1880 N.pl3 325  ARG325      0.1354
    104  N         29.0670   -5.3960   21.1980 N.3   344  ARG344     -0.1245
    105  CA        28.4350   -4.1950   21.6910 C.3   344  ARG344      0.1563
    106  C         29.3050   -3.5690   22.7630 C.2   344  ARG344      0.2260
    107  O         29.4660   -4.1140   23.8430 O.2   344  ARG344     -0.2867
    108  CB        27.0530   -4.5460   22.2580 C.3   344  ARG344      0.0307
    109  CG        26.2770   -3.3460   22.7570 C.3   344  ARG344      0.0489
    110  CD        24.9990   -3.6960   23.5360 C.3   344  ARG344      0.2205
    111  NE        24.0290   -4.4180   22.7150 N.pl3 344  ARG344     -0.0865
    112  CZ        22.7100   -4.3880   22.8990 C.cat 344  ARG344      0.5346
    113  NH1       22.1730   -3.6690   23.8750 N.pl3 344  ARG344      0.1354
    114  NH2       21.9240   -5.0900   22.0990 N.pl3 344  ARG344      0.1354
    115  N         13.9150   -7.3850   23.6730 N.3   476  GLN476     -0.1245
    116  CA        15.3160   -7.6920   23.8520 C.3   476  GLN476      0.1566
    117  C         15.8180   -8.7750   22.9150 C.2   476  GLN476      0.2260
    118  O         17.0080   -8.8790   22.6300 O.2   476  GLN476     -0.2867
    119  CB        15.5430   -8.1300   25.2940 C.3   476  GLN476      0.0367
    120  CG        15.0210   -7.1860   26.3890 C.3   476  GLN476      0.0905
    121  CD        15.3950   -5.7300   26.1930 C.2   476  GLN476      0.2608
    122  OE1       14.8760   -4.8610   26.8870 O.2   476  GLN476     -0.2717
    123  NE2       16.2920   -5.4560   25.2490 N.am  476  GLN476     -0.0878
    124  N         16.5060   -6.7600   19.7840 N.3   479  ASP479     -0.1239
    125  CA        17.1180   -5.4600   20.1030 C.3   479  ASP479      0.1674
    126  C         16.4970   -4.3650   19.1830 C.2   479  ASP479      0.2266
    127  O         17.2150   -3.6490   18.4850 O.2   479  ASP479     -0.2867
    128  CB        18.6370   -5.5240   19.8610 C.3   479  ASP479      0.1410
    129  CG        19.3930   -4.3970   20.5460 C.2   479  ASP479      0.3668
    130  OD1       19.2280   -4.2400   21.7830 O.co2 479  ASP479     -0.2456
    131  OD2       20.1430   -3.6710   19.8470 O.co2 479  ASP479     -0.2456
    132  N         14.1240  -12.0690   26.5620 N.3   627  ASN627     -0.1240
    133  CA        14.7690  -13.2470   25.9870 C.3   627  ASN627      0.1653
    134  C         14.3280  -14.5400   26.6520 C.2   627  ASN627      0.2266
    135  O         14.5090  -15.6200   26.0960 O.2   627  ASN627     -0.2867
    136  CB        16.2800  -13.1320   26.1160 C.3   627  ASN627      0.1155
    137  CG        16.8580  -12.1450   25.1630 C.2   627  ASN627      0.2627
    138  OD1       17.1580  -12.4700   24.0230 O.2   627  ASN627     -0.2716
    139  ND2       17.0030  -10.9170   25.6130 N.am  627  ASN627     -0.0877
@<TRIPOS>BOND
     1   127   126    2
     2   126   125    1
     3   124   125    1
     4   131   129   ar
     5   128   125    1
     6   128   129    1
     7   129   130   ar
     8   102   101    1
     9   103   101    1
    10   104   105    1
    11    70    69    2
    12   101   100    2
    13   105   108    1
    14   105   106    1
    15   114   112    1
    16    69    68    1
    17   108   109    1
    18   118   117    2
    19   111   112    2
    20   111   110    1
    21   109   110    1
    22   106   107    2
    23   100    99    1
    24   112   113    1
    25   117   116    1
    26    99    98    1
    27    71    68    1
    28    71    72    1
    29    68    67    1
    30    96    95    2
    31   115   116    1
    32   116   119    1
    33    74    73    2
    34   138   137    2
    35    97    98    1
    36    97    94    1
    37    73    72    1
    38    73    75   am
    39    95    94    1
    40   137   139   am
    41   137   136    1
    42   123   121   am
    43   119   120    1
    44    94    93    1
    45   133   136    1
    46   133   132    1
    47   133   134    1
    48   135   134    2
    49   121   120    1
    50   121   122    2
    51    92    90    1
    52    62    61    2
    53    81    80    1
    54    61    60    1
    55    66    64    1
    56    90    89    2
    57    90    91    1
    58    64    63    1
    59    64    65    1
    60    80    77    1
    61    89    88    1
    62    63    60    1
    63    60    59    1
    64    77    76    1
    65    77    78    1
    66    18    16    1
    67    16    17    1
    68    16    15    2
    69    15    14    1
    70     6     5    1
    71    14    13    1
    72    88    87    1
    73    78    79    2
    74    87    86    1
    75    58    57    2
    76    13    12    1
    77     5     7    1
    78     5     2    1
    79    12     9    1
    80     1     2    1
    81    54    52    1
    82    86    83    1
    83     2     3    1
    84    83    82    1
    85    83    84    1
    86    57    56    1
    87    52    53    1
    88    52    51    2
    89    11    10    2
    90     9     8    1
    91     9    10    1
    92    84    85    2
    93    55    56    1
    94    51    50    1
    95     3     4    2
    96    32    31    1
    97    24    23    1
    98    47    46    2
    99    50    49    1
   100    31    30    1
   101    23    20    1
   102    41    39   ar
   103    41    43   ar
   104    39    38   ar
   105    28    27    2
   106    46    45    1
   107    29    30    1
   108    29    26    1
   109    49    48    1
   110    20    19    1
   111    20    21    1
   112    43    42   ar
   113    27    26    1
   114    38    37    1
   115    38    40   ar
   116    48    45    1
   117    26    25    1
   118    45    44    1
   119    33    34    1
   120    37    34    1
   121    34    35    1
   122    21    22    2
   123    42    40   ar
   124    35    36    2
