@<TRIPOS>MOLECULE
tmp/1po8A00.pdb
 111 108 0 0 0
SMALL
GASTEIGER

@<TRIPOS>ATOM
      1  N          7.7220   29.6290   -3.1670 N.3     2  LEU2       -0.1245
      2  CA         6.5210   28.8010   -3.1470 C.3     2  LEU2        0.1561
      3  C          6.7800   27.3380   -3.5160 C.2     2  LEU2        0.2260
      4  O          6.1880   26.4310   -2.9220 O.2     2  LEU2       -0.2867
      5  CB         5.4550   29.4240   -4.0610 C.3     2  LEU2        0.0270
      6  CG         4.0270   29.4230   -3.4920 C.3     2  LEU2        0.0019
      7  CD1        4.0400   29.8780   -2.0390 C.3     2  LEU2        0.0001
      8  CD2        3.1400   30.3260   -4.3190 C.3     2  LEU2        0.0001
      9  N          8.8990   25.6220   -0.7480 N.3     5  LEU5       -0.1245
     10  CA         7.9770   25.3740    0.3450 C.3     5  LEU5        0.1561
     11  C          7.2460   24.0500    0.1070 C.2     5  LEU5        0.2260
     12  O          7.0060   23.2760    1.0420 O.2     5  LEU5       -0.2867
     13  CB         6.9720   26.5180    0.4350 C.3     5  LEU5        0.0270
     14  CG         5.6860   26.2440    1.2140 C.3     5  LEU5        0.0019
     15  CD1        6.0220   25.7710    2.6100 C.3     5  LEU5        0.0001
     16  CD2        4.8340   27.5050    1.2460 C.3     5  LEU5        0.0001
     17  N          7.2510   20.6540    2.6570 N.3     9  ILE9       -0.1245
     18  CA         6.0600   19.9180    3.0170 C.3     9  ILE9        0.1561
     19  C          6.2360   18.4620    2.5810 C.2     9  ILE9        0.2260
     20  O          5.8390   17.5380    3.2890 O.2     9  ILE9       -0.2867
     21  CB         4.8170   20.5410    2.3470 C.3     9  ILE9        0.0252
     22  CG1        4.5960   21.9450    2.9160 C.3     9  ILE9        0.0019
     23  CG2        3.5950   19.6540    2.5540 C.3     9  ILE9        0.0019
     24  CD1        3.4260   22.6690    2.3330 C.3     9  ILE9        0.0001
     25  N          0.7390   17.4860   -1.6560 N.3    17  TRP17      -0.1241
     26  CA         0.5300   18.9120   -1.8920 C.3    17  TRP17       0.1605
     27  C         -0.9440   19.3610   -1.9170 C.2    17  TRP17       0.2264
     28  O         -1.3680   20.0910   -1.0190 O.2    17  TRP17      -0.2867
     29  CB         1.2600   19.2960   -3.1920 C.3    17  TRP17       0.0550
     30  CG         1.2730   20.7480   -3.5340 C.ar   17  TRP17       0.0003
     31  CD1        0.8560   21.3160   -4.7030 C.ar   17  TRP17       0.0946
     32  CD2        1.7530   21.8180   -2.7140 C.ar   17  TRP17       0.0152
     33  NE1        1.0480   22.6760   -4.6640 N.ar   17  TRP17      -0.2442
     34  CE2        1.6030   23.0120   -3.4570 C.ar   17  TRP17       0.0810
     35  CE3        2.3100   21.8840   -1.4300 C.ar   17  TRP17       0.0012
     36  CZ2        1.9760   24.2680   -2.9450 C.ar   17  TRP17       0.0191
     37  CZ3        2.6830   23.1330   -0.9230 C.ar   17  TRP17       0.0001
     38  CH2        2.5180   24.3060   -1.6850 C.ar   17  TRP17       0.0015
     39  N         -3.0300   20.2720    0.9750 N.3    20  TYR20      -0.1227
     40  CA        -3.0610   21.5290    1.6980 C.3    20  TYR20       0.1736
     41  C         -3.5250   22.7220    0.8790 C.2    20  TYR20       0.2596
     42  O         -3.9460   23.7440    1.4410 O.2    20  TYR20      -0.2718
     43  CB        -1.6770   21.8240    2.2680 C.3    20  TYR20       0.0548
     44  CG        -1.1620   20.7390    3.1780 C.ar   20  TYR20      -0.0200
     45  CD1       -0.2810   19.7650    2.7080 C.ar   20  TYR20      -0.0009
     46  CD2       -1.5650   20.6760    4.5100 C.ar   20  TYR20      -0.0009
     47  CE1        0.1880   18.7580    3.5450 C.ar   20  TYR20       0.0417
     48  CE2       -1.1040   19.6750    5.3510 C.ar   20  TYR20       0.0417
     49  CZ        -0.2260   18.7260    4.8640 C.ar   20  TYR20       0.1957
     50  OH         0.2670   17.7690    5.7080 O.3    20  TYR20      -0.2866
     51  N         -3.4520   22.5910   -0.4430 N.am   21  THR21      -0.1953
     52  CA        -3.8280   23.6750   -1.3400 C.3    21  THR21       0.1897
     53  C         -5.0960   24.4080   -0.9290 C.2    21  THR21       0.2313
     54  O         -5.1770   25.6280   -1.0550 O.2    21  THR21      -0.2863
     55  CB        -3.9380   23.1740   -2.8030 C.3    21  THR21       0.1794
     56  OG1       -2.6870   23.3950   -3.4680 O.3    21  THR21      -0.2208
     57  CG2       -5.0130   23.9140   -3.5560 C.3    21  THR21       0.0378
     58  N         -5.5280   27.5450    5.0620 N.3    27  CYS27      -0.1221
     59  CA        -4.5960   26.8670    4.1810 C.3    27  CYS27       0.1808
     60  C         -5.0190   27.2110    2.7660 C.2    27  CYS27       0.2602
     61  O         -6.1230   26.8660    2.3380 O.2    27  CYS27      -0.2717
     62  CB        -4.6400   25.3620    4.4180 C.3    27  CYS27       0.0970
     63  SG        -4.2510   24.9400    6.1420 S.3    27  CYS27      -0.0800
     64  N         -4.1420   27.9090    2.0530 N.am   28  GLY28      -0.1942
     65  CA        -4.4470   28.3280    0.6990 C.3    28  GLY28       0.2014
     66  C         -4.1580   29.8110    0.6250 C.2    28  GLY28       0.2638
     67  O         -3.6050   30.3650    1.5730 O.2    28  GLY28      -0.2714
     68  N         -4.5120   30.4600   -0.4820 N.am   29  LYS29      -0.1977
     69  CA        -4.2740   31.9020   -0.6370 C.3    29  LYS29       0.1596
     70  C         -5.1840   32.7330    0.2850 C.2    29  LYS29       0.2287
     71  O         -6.4030   32.5660    0.2920 O.2    29  LYS29      -0.2864
     72  CB        -4.4920   32.3150   -2.1020 C.3    29  LYS29       0.0298
     73  CG        -4.6040   33.8190   -2.3570 C.3    29  LYS29       0.0038
     74  CD        -3.3200   34.5550   -2.0090 C.3    29  LYS29       0.0206
     75  CE        -3.4890   36.0640   -2.1570 C.3    29  LYS29       0.1093
     76  NZ        -3.8220   36.4570   -3.5560 N.3    29  LYS29      -0.1314
     77  N         -1.5710   27.1580    9.0820 N.3    43  CYS43      -0.1235
     78  CA        -1.7040   28.0260    7.9310 C.3    43  CYS43       0.1677
     79  C         -1.8960   29.4770    8.3230 C.2    43  CYS43       0.2270
     80  O         -1.4070   30.3710    7.6430 O.2    43  CYS43      -0.2867
     81  CB        -2.8450   27.5250    7.0600 C.3    43  CYS43       0.0956
     82  SG        -2.4630   25.8400    6.4720 S.3    43  CYS43      -0.0801
     83  N          1.5760   30.7550    9.3310 N.3    46  HIS46      -0.1226
     84  CA         2.4090   30.8310    8.1350 C.3    46  HIS46       0.1752
     85  C          2.1060   32.1640    7.4640 C.2    46  HIS46       0.2596
     86  O          3.0060   32.9600    7.1890 O.2    46  HIS46      -0.2718
     87  CB         2.0990   29.6740    7.1670 C.3    46  HIS46       0.0759
     88  CG         3.0010   29.6290    5.9670 C.ar   46  HIS46       0.0818
     89  ND1        2.5430   29.8030    4.6790 N.ar   46  HIS46      -0.2268
     90  CD2        4.3400   29.4360    5.8640 C.ar   46  HIS46       0.1154
     91  CE1        3.5580   29.7180    3.8340 C.ar   46  HIS46       0.1986
     92  NE2        4.6590   29.4970    4.5270 N.ar   46  HIS46      -0.2212
     93  N          0.8220   32.3950    7.2180 N.am   47  ASP47      -0.1974
     94  CA         0.3490   33.6180    6.5990 C.3    47  ASP47       0.1709
     95  C          1.0060   34.8330    7.2380 C.2    47  ASP47       0.2293
     96  O          1.7200   35.5980    6.5860 O.2    47  ASP47      -0.2864
     97  CB        -1.1590   33.6940    6.7710 C.3    47  ASP47       0.1436
     98  CG        -1.9030   33.0810    5.6170 C.2    47  ASP47       0.3671
     99  OD1       -1.6080   31.9240    5.2390 O.co2  47  ASP47      -0.2456
    100  OD2       -2.7970   33.7720    5.0870 O.co2  47  ASP47      -0.2456
    101  N          2.6970   21.1820    9.9500 N.3    99  PHE99      -0.1241
    102  CA         1.7810   20.3430    9.1930 C.3    99  PHE99       0.1605
    103  C          1.9230   18.8790    9.5320 C.2    99  PHE99       0.2264
    104  O          0.9320   18.2000    9.7990 O.2    99  PHE99      -0.2867
    105  CB         2.0190   20.5290    7.6950 C.3    99  PHE99       0.0534
    106  CG         1.5160   21.8320    7.1660 C.ar   99  PHE99      -0.0203
    107  CD1        1.3240   22.9140    8.0190 C.ar   99  PHE99      -0.0042
    108  CD2        1.2600   21.9920    5.8110 C.ar   99  PHE99      -0.0042
    109  CE1        0.8910   24.1320    7.5340 C.ar   99  PHE99      -0.0003
    110  CE2        0.8250   23.2130    5.3110 C.ar   99  PHE99      -0.0003
    111  CZ         0.6410   24.2840    6.1800 C.ar   99  PHE99      -0.0000
@<TRIPOS>BOND
     1    31    33   ar
     2    31    30   ar
     3    33    34   ar
     4     8     6    1
     5     5     6    1
     6     5     2    1
     7    76    75    1
     8    57    55    1
     9    30    29    1
    10    30    32   ar
    11     3     2    1
    12     3     4    2
    13     6     7    1
    14    56    55    1
    15    34    36   ar
    16    34    32   ar
    17    29    26    1
    18     1     2    1
    19    36    38   ar
    20    55    52    1
    21    32    35   ar
    22    73    72    1
    23    73    74    1
    24    75    74    1
    25    72    69    1
    26    27    26    1
    27    27    28    2
    28    26    25    1
    29    38    37   ar
    30    35    37   ar
    31    52    53    1
    32    52    51    1
    33    54    53    2
    34     9    10    1
    35    69    68    1
    36    69    70    1
    37    68    66   am
    38    51    41   am
    39    11    10    1
    40    11    12    2
    41    70    71    2
    42    10    13    1
    43    13    14    1
    44    66    65    1
    45    66    67    2
    46    65    64    1
    47    41    42    2
    48    41    40    1
    49    39    40    1
    50    14    16    1
    51    14    15    1
    52    40    43    1
    53    64    60   am
    54    43    44    1
    55    24    22    1
    56    61    60    2
    57    21    23    1
    58    21    22    1
    59    21    18    1
    60    19    18    1
    61    19    20    2
    62    17    18    1
    63    45    44   ar
    64    45    47   ar
    65    60    59    1
    66    44    46   ar
    67    47    49   ar
    68    91    92   ar
    69    91    89   ar
    70    59    62    1
    71    59    58    1
    72    62    63    1
    73    46    48   ar
    74    92    90   ar
    75    89    88   ar
    76    49    48   ar
    77    49    50    1
    78   100    98   ar
    79    99    98   ar
    80   110   108   ar
    81   110   111   ar
    82    98    97    1
    83   108   106   ar
    84    90    88   ar
    85    88    87    1
    86    63    82    1
    87   111   109   ar
    88    82    81    1
    89    96    95    2
    90    94    97    1
    91    94    93    1
    92    94    95    1
    93    81    78    1
    94   106   105    1
    95   106   107   ar
    96    87    84    1
    97    86    85    2
    98    93    85   am
    99    85    84    1
   100   109   107   ar
   101    80    79    2
   102   105   102    1
   103    78    79    1
   104    78    77    1
   105    84    83    1
   106   102   103    1
   107   102   101    1
   108   103   104    2
