@<TRIPOS>MOLECULE
tmp/1pobB00.pdb
 193 193 0 0 0
SMALL
GASTEIGER

@<TRIPOS>ATOM
      1  N         22.9910   44.2810    2.3650 N.3     2  LEU2       -0.1245
      2  CA        23.2760   42.8840    2.7680 C.3     2  LEU2        0.1561
      3  C         24.7310   42.4720    2.5120 C.2     2  LEU2        0.2260
      4  O         25.3310   41.7210    3.2920 O.2     2  LEU2       -0.2867
      5  CB        22.3790   41.8990    2.0210 C.3     2  LEU2        0.0270
      6  CG        20.8980   42.0580    2.3600 C.3     2  LEU2        0.0019
      7  CD1       20.0740   40.8250    1.9810 C.3     2  LEU2        0.0001
      8  CD2       20.6510   42.3000    3.8520 C.3     2  LEU2        0.0001
      9  N         26.6170   43.8900    5.3130 N.3     5  PHE5       -0.1227
     10  CA        26.2630   43.2080    6.5530 C.3     5  PHE5        0.1736
     11  C         27.1180   41.9480    6.6920 C.2     5  PHE5        0.2595
     12  O         27.7080   41.6940    7.7450 O.2     5  PHE5       -0.2718
     13  CB        24.7780   42.8370    6.5880 C.3     5  PHE5        0.0547
     14  CG        24.3350   42.1960    7.9170 C.ar    5  PHE5       -0.0202
     15  CD1       24.9580   42.5500    9.1260 C.ar    5  PHE5       -0.0042
     16  CD2       23.2960   41.2560    7.9240 C.ar    5  PHE5       -0.0042
     17  CE1       24.5300   41.9750   10.3330 C.ar    5  PHE5       -0.0003
     18  CE2       22.8680   40.6850    9.1300 C.ar    5  PHE5       -0.0003
     19  CZ        23.4830   41.0470   10.3340 C.ar    5  PHE5       -0.0000
     20  N         27.2140   41.1610    5.6280 N.am    6  LYS6       -0.1980
     21  CA        27.9860   39.9090    5.7150 C.3     6  LYS6        0.1596
     22  C         29.4870   40.2100    5.9240 C.2     6  LYS6        0.2287
     23  O         30.2300   39.3900    6.4750 O.2     6  LYS6       -0.2864
     24  CB        27.7280   38.9960    4.5040 C.3     6  LYS6        0.0298
     25  CG        28.4220   39.4260    3.2230 C.3     6  LYS6        0.0038
     26  CD        29.6640   38.6000    2.9190 C.3     6  LYS6        0.0206
     27  CE        30.8970   39.4620    2.6780 C.3     6  LYS6        0.1093
     28  NZ        31.3570   39.4230    1.2840 N.3     6  LYS6       -0.1314
     29  N         29.8020   40.8030    9.6120 N.3     9  ILE9       -0.1245
     30  CA        29.7980   39.5100   10.3110 C.3     9  ILE9        0.1561
     31  C         31.2070   38.8930   10.2660 C.2     9  ILE9        0.2260
     32  O         31.6440   38.2570   11.2330 O.2     9  ILE9       -0.2867
     33  CB        28.7560   38.5720    9.6840 C.3     9  ILE9        0.0252
     34  CG1       27.3220   38.9480   10.0980 C.3     9  ILE9        0.0019
     35  CG2       28.9580   37.1050   10.0910 C.3     9  ILE9        0.0019
     36  CD1       26.2380   38.3290    9.2100 C.3     9  ILE9        0.0001
     37  N         29.6050   33.2390    6.8790 N.3    18  TRP18      -0.1227
     38  CA        28.3820   34.0530    6.9930 C.3    18  TRP18       0.1737
     39  C         27.1490   33.2530    6.5990 C.2    18  TRP18       0.2595
     40  O         26.0250   33.5640    7.0170 O.2    18  TRP18      -0.2718
     41  CB        28.4370   35.3550    6.1520 C.3    18  TRP18       0.0564
     42  CG        28.4750   35.2260    4.6070 C.ar   18  TRP18       0.0003
     43  CD1       29.5660   35.2730    3.8300 C.ar   18  TRP18       0.0946
     44  CD2       27.3450   35.0590    3.7360 C.ar   18  TRP18       0.0152
     45  NE1       29.1350   35.1780    2.4690 N.ar   18  TRP18      -0.2442
     46  CE2       27.8310   35.0700    2.4330 C.ar   18  TRP18       0.0810
     47  CE3       25.9630   34.9270    3.9400 C.ar   18  TRP18       0.0012
     48  CZ2       27.0080   34.9920    1.3010 C.ar   18  TRP18       0.0191
     49  CZ3       25.1420   34.8350    2.7940 C.ar   18  TRP18       0.0001
     50  CH2       25.6410   34.8720    1.5360 C.ar   18  TRP18       0.0015
     51  N         27.3540   32.2260    5.8090 N.am   19  TRP19      -0.1976
     52  CA        26.2260   31.4160    5.3380 C.3    19  TRP19       0.1640
     53  C         25.6310   30.6040    6.5040 C.2    19  TRP19       0.2290
     54  O         24.4630   30.2010    6.4650 O.2    19  TRP19      -0.2864
     55  CB        26.6610   30.4960    4.1880 C.3    19  TRP19       0.0576
     56  CG        25.5010   29.6850    3.5780 C.ar   19  TRP19       0.0006
     57  CD1       25.3330   28.3580    3.6490 C.ar   19  TRP19       0.0946
     58  CD2       24.4030   30.2170    2.8300 C.ar   19  TRP19       0.0152
     59  NE1       24.1290   28.0400    2.9480 N.ar   19  TRP19      -0.2442
     60  CE2       23.5990   29.1410    2.4730 C.ar   19  TRP19       0.0810
     61  CE3       24.0250   31.5090    2.4300 C.ar   19  TRP19       0.0012
     62  CZ2       22.4210   29.2720    1.7250 C.ar   19  TRP19       0.0191
     63  CZ3       22.8360   31.6330    1.6770 C.ar   19  TRP19       0.0001
     64  CH2       22.0720   30.5660    1.3420 C.ar   19  TRP19       0.0015
     65  N         24.6450   31.5700    9.2230 N.3    21  PHE21      -0.1227
     66  CA        23.6020   32.3580    9.9200 C.3    21  PHE21       0.1736
     67  C         22.3790   32.6550    9.0320 C.2    21  PHE21       0.2595
     68  O         21.3960   33.2610    9.4850 O.2    21  PHE21      -0.2718
     69  CB        24.1620   33.7180   10.3600 C.3    21  PHE21       0.0547
     70  CG        25.3840   33.6290   11.2810 C.ar   21  PHE21      -0.0202
     71  CD1       25.2130   33.4680   12.6620 C.ar   21  PHE21      -0.0042
     72  CD2       26.6730   33.7260   10.7430 C.ar   21  PHE21      -0.0042
     73  CE1       26.3300   33.3920   13.5020 C.ar   21  PHE21      -0.0003
     74  CE2       27.7900   33.6480   11.5830 C.ar   21  PHE21      -0.0003
     75  CZ        27.6190   33.4810   12.9620 C.ar   21  PHE21      -0.0000
     76  N         22.4550   32.2200    7.7900 N.am   22  ALA22      -0.1980
     77  CA        21.4000   32.4870    6.7910 C.3    22  ALA22       0.1597
     78  C         20.1400   31.6090    6.9770 C.2    22  ALA22       0.2287
     79  O         19.1020   31.8420    6.3440 O.2    22  ALA22      -0.2864
     80  CB        21.9450   32.2550    5.3810 C.3    22  ALA22       0.0319
     81  N         14.4310   33.1340   13.5790 N.3    27  TYR27      -0.1227
     82  CA        14.5480   34.5240   13.0840 C.3    27  TYR27       0.1736
     83  C         15.7590   34.8010   12.1450 C.2    27  TYR27       0.2596
     84  O         15.7850   35.8230   11.4460 O.2    27  TYR27      -0.2718
     85  CB        14.6430   35.4910   14.2770 C.3    27  TYR27       0.0548
     86  CG        13.2920   35.7320   14.9840 C.ar   27  TYR27      -0.0200
     87  CD1       12.4280   36.7450   14.5360 C.ar   27  TYR27      -0.0009
     88  CD2       12.9140   34.9430   16.0810 C.ar   27  TYR27      -0.0009
     89  CE1       11.2060   36.9730   15.1890 C.ar   27  TYR27       0.0417
     90  CE2       11.6960   35.1740   16.7350 C.ar   27  TYR27       0.0417
     91  CZ        10.8440   36.1890   16.2920 C.ar   27  TYR27       0.1957
     92  OH         9.6670   36.4160   16.9360 O.3    27  TYR27      -0.2866
     93  N         16.7600   33.9070   12.1090 N.am   28  CYS28      -0.1956
     94  CA        17.9790   34.1120   11.2490 C.3    28  CYS28       0.1843
     95  C         17.7500   33.5820    9.8720 C.2    28  CYS28       0.2626
     96  O         17.7660   32.3720    9.6550 O.2    28  CYS28      -0.2714
     97  CB        19.2010   33.5400   11.9710 C.3    28  CYS28       0.0997
     98  SG        19.3140   34.7330   13.2640 S.3    28  CYS28      -0.0797
     99  N         17.5490   34.5590    9.0210 N.am   29  GLY29      -0.1940
    100  CA        17.2370   34.3700    7.6080 C.3    29  GLY29       0.2014
    101  C         16.1340   35.3590    7.2650 C.2    29  GLY29       0.2639
    102  O         15.7710   36.2140    8.0850 O.2    29  GLY29      -0.2714
    103  N         15.5990   35.2490    6.0700 N.am   30  ARG30      -0.1963
    104  CA        14.5420   36.1720    5.6550 C.3    30  ARG30       0.1729
    105  C         13.2880   35.9510    6.5070 C.2    30  ARG30       0.2616
    106  O         12.7880   34.8230    6.6340 O.2    30  ARG30      -0.2715
    107  CB        14.1780   36.0080    4.1900 C.3    30  ARG30       0.0348
    108  CG        13.0630   36.9700    3.8150 C.3    30  ARG30       0.0492
    109  CD        13.0450   37.3800    2.3530 C.3    30  ARG30       0.2205
    110  NE        11.6710   37.4940    1.9000 N.pl3  30  ARG30      -0.0865
    111  CZ        10.8390   36.4560    1.8950 C.cat  30  ARG30       0.5346
    112  NH1       11.2700   35.2340    2.2460 N.pl3  30  ARG30       0.1354
    113  NH2        9.5400   36.5460    1.5950 N.pl3  30  ARG30       0.1354
    114  N         12.8290   37.0570    7.0620 N.am   31  GLY31      -0.1955
    115  CA        11.6580   37.0830    7.9420 C.3    31  GLY31       0.1869
    116  C         12.0270   36.4660    9.2920 C.2    31  GLY31       0.2309
    117  O         13.2030   36.4640    9.6920 O.2    31  GLY31      -0.2863
    118  N         19.0650   38.1020   16.0540 N.3    44  CYS44      -0.1235
    119  CA        18.3960   38.1950   14.7580 C.3    44  CYS44       0.1677
    120  C         17.0180   38.8240   14.8810 C.2    44  CYS44       0.2270
    121  O         16.5780   39.5890   14.0100 O.2    44  CYS44      -0.2867
    122  CB        18.2430   36.8120   14.1460 C.3    44  CYS44       0.0956
    123  SG        19.8060   36.2440   13.3380 S.3    44  CYS44      -0.0801
    124  N         17.5360   42.3950   15.3690 N.3    47  HIS47      -0.1226
    125  CA        18.0520   42.9170   14.0700 C.3    47  HIS47       0.1752
    126  C         16.8560   43.1440   13.1300 C.2    47  HIS47       0.2596
    127  O         16.7160   44.2130   12.5250 O.2    47  HIS47      -0.2718
    128  CB        19.0380   41.9280   13.4140 C.3    47  HIS47       0.0759
    129  CG        19.7250   42.4310   12.1120 C.ar   47  HIS47       0.0818
    130  ND1       19.6400   41.7190   10.9120 N.ar   47  HIS47      -0.2268
    131  CD2       20.4980   43.5220   11.8290 C.ar   47  HIS47       0.1154
    132  CE1       20.3340   42.3620    9.9870 C.ar   47  HIS47       0.1986
    133  NE2       20.8510   43.4370   10.5150 N.ar   47  HIS47      -0.2212
    134  N         16.0140   42.1200   13.0380 N.am   48  ASP48      -0.1974
    135  CA        14.8080   42.1550   12.1830 C.3    48  ASP48       0.1709
    136  C         13.9190   43.3490   12.5670 C.2    48  ASP48       0.2293
    137  O         13.4240   44.0830   11.7000 O.2    48  ASP48      -0.2864
    138  CB        13.9890   40.8690   12.3490 C.3    48  ASP48       0.1436
    139  CG        14.5060   39.6870   11.5170 C.2    48  ASP48       0.3671
    140  OD1       15.7060   39.6930   11.0460 O.co2  48  ASP48      -0.2456
    141  OD2       13.7360   38.6790   11.2930 O.co2  48  ASP48      -0.2456
    142  N         15.3520   46.6200   11.6620 N.3    51  TYR51      -0.1227
    143  CA        15.1250   46.8480   10.2190 C.3    51  TYR51       0.1736
    144  C         13.7040   47.3820    9.9900 C.2    51  TYR51       0.2595
    145  O         13.4700   48.2360    9.1220 O.2    51  TYR51      -0.2718
    146  CB        15.2700   45.5370    9.4370 C.3    51  TYR51       0.0548
    147  CG        16.6620   45.3160    8.8260 C.ar   51  TYR51      -0.0200
    148  CD1       17.7800   45.9950    9.3350 C.ar   51  TYR51      -0.0009
    149  CD2       16.8180   44.4260    7.7540 C.ar   51  TYR51      -0.0009
    150  CE1       19.0500   45.7750    8.7760 C.ar   51  TYR51       0.0417
    151  CE2       18.0860   44.2050    7.1990 C.ar   51  TYR51       0.0417
    152  CZ        19.2010   44.8770    7.7110 C.ar   51  TYR51       0.1957
    153  OH        20.4320   44.6520    7.1750 O.3    51  TYR51      -0.2866
    154  N         12.7910   46.8540   10.7840 N.am   52  ASN52      -0.1974
    155  CA        11.3710   47.2280   10.7210 C.3    52  ASN52       0.1688
    156  C         11.2150   48.7370   11.0080 C.2    52  ASN52       0.2292
    157  O         10.3680   49.4180   10.4100 O.2    52  ASN52      -0.2864
    158  CB        10.5700   46.4110   11.7500 C.3    52  ASN52       0.1181
    159  CG        10.3520   44.9450   11.3310 C.2    52  ASN52       0.2629
    160  OD1       10.8750   44.5070   10.3060 O.2    52  ASN52      -0.2716
    161  ND2        9.6030   44.1470   12.0710 N.am   52  ASN52      -0.0877
    162  N         12.7640   51.1120    8.1760 N.3    55  GLU55      -0.1245
    163  CA        11.8700   51.0910    6.9980 C.3    55  GLU55       0.1567
    164  C         10.7640   52.1430    7.1260 C.2    55  GLU55       0.2260
    165  O         10.1740   52.5640    6.1160 O.2    55  GLU55      -0.2867
    166  CB        11.1800   49.7340    6.8920 C.3    55  GLU55       0.0388
    167  CG        11.5400   48.9440    5.6380 C.3    55  GLU55       0.1160
    168  CD        11.0720   47.4920    5.7290 C.2    55  GLU55       0.3649
    169  OE1        9.8350   47.2320    5.9880 O.co2  55  GLU55      -0.2457
    170  OE2       11.9110   46.5300    5.5540 O.co2  55  GLU55      -0.2457
    171  N         17.7500   46.4580    2.9900 N.3    63  TYR63      -0.1241
    172  CA        18.4740   45.4210    2.2270 C.3    63  TYR63       0.1605
    173  C         19.5040   45.9860    1.2360 C.2    63  TYR63       0.2264
    174  O         20.6040   45.4310    1.0820 O.2    63  TYR63      -0.2867
    175  CB        17.5200   44.5860    1.3620 C.3    63  TYR63       0.0534
    176  CG        16.8880   43.3890    2.0810 C.ar   63  TYR63      -0.0201
    177  CD1       16.6620   43.4320    3.4590 C.ar   63  TYR63      -0.0009
    178  CD2       16.5320   42.2460    1.3510 C.ar   63  TYR63      -0.0009
    179  CE1       16.0380   42.3560    4.1010 C.ar   63  TYR63       0.0417
    180  CE2       15.9150   41.1660    1.9950 C.ar   63  TYR63       0.0417
    181  CZ        15.6570   41.2280    3.3690 C.ar   63  TYR63       0.1957
    182  OH        15.0240   40.1970    3.9900 O.3    63  TYR63      -0.2866
    183  N         26.1630   38.6330   17.3540 N.3   100  PHE100     -0.1241
    184  CA        26.5100   37.2900   16.8340 C.3   100  PHE100      0.1605
    185  C         27.7940   36.7350   17.4510 C.2   100  PHE100      0.2264
    186  O         27.9210   35.5230   17.6660 O.2   100  PHE100     -0.2867
    187  CB        26.7820   37.2880   15.3280 C.3   100  PHE100      0.0534
    188  CG        25.5340   37.3810   14.4610 C.ar  100  PHE100     -0.0203
    189  CD1       24.2850   37.5980   15.0460 C.ar  100  PHE100     -0.0042
    190  CD2       25.6550   37.2490   13.0730 C.ar  100  PHE100     -0.0042
    191  CE1       23.1490   37.7100   14.2380 C.ar  100  PHE100     -0.0003
    192  CE2       24.5210   37.3710   12.2640 C.ar  100  PHE100     -0.0003
    193  CZ        23.2680   37.6030   12.8460 C.ar  100  PHE100     -0.0000
@<TRIPOS>BOND
     1   174   173    2
     2   173   172    1
     3    28    27    1
     4    48    50   ar
     5    48    46   ar
     6    64    63   ar
     7    64    62   ar
     8   178   180   ar
     9   178   176   ar
    10   175   176    1
    11   175   172    1
    12    50    49   ar
    13   113   111    1
    14    63    61   ar
    15    62    60   ar
    16   111   110    2
    17   111   112    1
    18   110   109    1
    19     7     6    1
    20   180   181   ar
    21     5     6    1
    22     5     2    1
    23   176   177   ar
    24   172   171    1
    25   109   108    1
    26     6     8    1
    27     1     2    1
    28    61    58   ar
    29    46    45   ar
    30    46    44   ar
    31    45    43   ar
    32    60    58   ar
    33    60    59   ar
    34     3     2    1
    35     3     4    2
    36    27    26    1
    37    49    47   ar
    38    58    56   ar
    39    26    25    1
    40    59    57   ar
    41    25    24    1
    42   181   182    1
    43   181   179   ar
    44   177   179   ar
    45    56    57   ar
    46    56    55    1
    47    44    47   ar
    48    44    42   ar
    49   108   107    1
    50    43    42   ar
    51    55    52    1
    52   107   104    1
    53    24    21    1
    54    42    41    1
    55     9    10    1
    56    52    51    1
    57    52    53    1
    58    80    77    1
    59   170   168   ar
    60    20    21    1
    61    20    11   am
    62   167   168    1
    63   167   166    1
    64   104   103    1
    65   104   105    1
    66    21    22    1
    67   168   169   ar
    68    51    39   am
    69    22    23    2
    70   103   101   am
    71   165   164    2
    72    41    38    1
    73    79    78    2
    74    54    53    2
    75   105   106    2
    76   105   114   am
    77    10    13    1
    78    10    11    1
    79    13    14    1
    80    39    38    1
    81    39    40    2
    82    11    12    2
    83    77    78    1
    84    77    76    1
    85    37    38    1
    86   166   163    1
    87   163   164    1
    88   163   162    1
    89   114   115    1
    90   153   152    1
    91   151   152   ar
    92   151   149   ar
    93   101   100    1
    94   101   102    2
    95   100    99    1
    96   152   150   ar
    97   149   147   ar
    98    76    67   am
    99    14    16   ar
   100    14    15   ar
   101    16    18   ar
   102   115   116    1
   103   150   148   ar
   104   147   148   ar
   105   147   146    1
   106    99    95   am
   107    67    68    2
   108    67    66    1
   109   145   144    2
   110    15    17   ar
   111    18    19   ar
   112    36    34    1
   113    65    66    1
   114   116   117    2
   115   146   143    1
   116    29    30    1
   117    96    95    2
   118    33    35    1
   119    33    34    1
   120    33    30    1
   121    95    94    1
   122    66    69    1
   123   132   133   ar
   124   132   130   ar
   125   144   143    1
   126   144   154   am
   127   143   142    1
   128    31    30    1
   129    31    32    2
   130   160   159    2
   131    17    19   ar
   132    69    70    1
   133   157   156    2
   134   133   131   ar
   135   155   154    1
   136   155   156    1
   137   155   158    1
   138    72    70   ar
   139    72    74   ar
   140   130   129   ar
   141   140   139   ar
   142    94    97    1
   143    94    93    1
   144    70    71   ar
   145   141   139   ar
   146   159   158    1
   147   159   161   am
   148    84    83    2
   149   139   138    1
   150    74    75   ar
   151   137   136    2
   152   131   129   ar
   153    97    98    1
   154    93    83   am
   155   129   128    1
   156    83    82    1
   157   135   138    1
   158   135   136    1
   159   135   134    1
   160   192   193   ar
   161   192   190   ar
   162   127   126    2
   163    71    73   ar
   164   193   191   ar
   165    75    73   ar
   166   134   126   am
   167   190   188   ar
   168    82    81    1
   169    82    85    1
   170   126   125    1
   171    98   123    1
   172   123   122    1
   173   128   125    1
   174   121   120    2
   175   125   124    1
   176   122   119    1
   177   191   189   ar
   178    85    86    1
   179   188   189   ar
   180   188   187    1
   181    87    86   ar
   182    87    89   ar
   183   119   120    1
   184   119   118    1
   185    86    88   ar
   186    89    91   ar
   187   187   184    1
   188    88    90   ar
   189    91    90   ar
   190    91    92    1
   191   184   183    1
   192   184   185    1
   193   185   186    2
