@<TRIPOS>MOLECULE
tmp/1pocA00.pdb
 179 177 0 0 0
SMALL
GASTEIGER

@<TRIPOS>ATOM
      1  N         35.9540   42.0270   21.6440 N.3     1  ILE1       -0.1245
      2  CA        36.7320   42.6060   20.5180 C.3     1  ILE1        0.1561
      3  C         37.3070   41.4640   19.6790 C.2     1  ILE1        0.2260
      4  O         37.8350   40.4810   20.2180 O.2     1  ILE1       -0.2867
      5  CB        37.9050   43.4590   21.1300 C.3     1  ILE1        0.0252
      6  CG1       38.3510   44.5870   20.1970 C.3     1  ILE1        0.0019
      7  CG2       39.1540   42.6320   21.4400 C.3     1  ILE1        0.0019
      8  CD1       37.1980   45.1710   19.3740 C.3     1  ILE1        0.0001
      9  N         39.8740   40.9430   16.3270 N.3     3  TYR3       -0.1241
     10  CA        40.9190   41.5750   15.5090 C.3     3  TYR3        0.1605
     11  C         40.4970   41.5460   14.0380 C.2     3  TYR3        0.2264
     12  O         40.3290   40.4700   13.4430 O.2     3  TYR3       -0.2867
     13  CB        42.2280   40.8180   15.7290 C.3     3  TYR3        0.0534
     14  CG        43.3960   41.3240   14.8840 C.ar    3  TYR3       -0.0201
     15  CD1       43.9360   42.5950   15.1140 C.ar    3  TYR3       -0.0009
     16  CD2       43.9300   40.5070   13.8850 C.ar    3  TYR3       -0.0009
     17  CE1       45.0180   43.0430   14.3480 C.ar    3  TYR3        0.0417
     18  CE2       45.0080   40.9550   13.1170 C.ar    3  TYR3        0.0417
     19  CZ        45.5550   42.2210   13.3510 C.ar    3  TYR3        0.1957
     20  OH        46.6100   42.6560   12.6130 O.3     3  TYR3       -0.2866
     21  N         37.9080   34.7980   14.4870 N.3     8  TRP8       -0.1227
     22  CA        37.9990   34.0880   15.7820 C.3     8  TRP8        0.1737
     23  C         38.9820   34.7020   16.8080 C.2     8  TRP8        0.2596
     24  O         38.9580   34.3540   17.9980 O.2     8  TRP8       -0.2718
     25  CB        38.4660   32.6450   15.5540 C.3     8  TRP8        0.0564
     26  CG        37.5870   31.8700   14.5640 C.ar    8  TRP8        0.0003
     27  CD1       37.6330   31.9250   13.2250 C.ar    8  TRP8        0.0946
     28  CD2       36.5680   30.9490   14.9250 C.ar    8  TRP8        0.0152
     29  NE1       36.6270   31.0340   12.7300 N.ar    8  TRP8       -0.2442
     30  CE2       36.0140   30.4720   13.7440 C.ar    8  TRP8        0.0810
     31  CE3       36.0740   30.4840   16.1490 C.ar    8  TRP8        0.0012
     32  CZ2       34.9670   29.5420   13.7120 C.ar    8  TRP8        0.0191
     33  CZ3       35.0230   29.5460   16.1070 C.ar    8  TRP8        0.0001
     34  CH2       34.4950   29.0990   14.9440 C.ar    8  TRP8        0.0015
     35  N         39.8490   35.6050   16.3820 N.am    9  CYS9       -0.1956
     36  CA        40.8460   36.2030   17.3100 C.3     9  CYS9        0.1843
     37  C         40.2310   37.3600   18.1140 C.2     9  CYS9        0.2626
     38  O         40.0590   38.4750   17.6000 O.2     9  CYS9       -0.2714
     39  CB        42.0580   36.7210   16.5360 C.3     9  CYS9        0.0997
     40  SG        42.9450   35.3770   15.6090 S.3     9  CYS9       -0.0797
     41  N         39.9320   37.0410   19.3650 N.am   10  GLY10      -0.1940
     42  CA        39.3140   37.9750   20.3290 C.3    10  GLY10       0.2014
     43  C         38.2200   37.2350   21.1100 C.2    10  GLY10       0.2639
     44  O         38.0980   36.0060   21.0200 O.2    10  GLY10      -0.2714
     45  N         37.4450   37.9990   21.8690 N.am   11  HIS11      -0.1959
     46  CA        36.3320   37.4430   22.6680 C.3    11  HIS11       0.1787
     47  C         35.3290   36.7460   21.7590 C.2    11  HIS11       0.2621
     48  O         34.6690   37.3890   20.9320 O.2    11  HIS11      -0.2715
     49  CB        35.5540   38.5430   23.3910 C.3    11  HIS11       0.0785
     50  CG        36.4200   39.4040   24.2970 C.ar   11  HIS11       0.0821
     51  ND1       37.1410   40.4810   23.8060 N.ar   11  HIS11      -0.2267
     52  CD2       36.6690   39.3460   25.6300 C.ar   11  HIS11       0.1154
     53  CE1       37.7900   41.0320   24.8140 C.ar   11  HIS11       0.1986
     54  NE2       37.5190   40.3670   25.9100 N.ar   11  HIS11      -0.2212
     55  N         35.2320   35.4480   21.9450 N.am   12  GLY12      -0.1940
     56  CA        34.3290   34.6110   21.1510 C.3    12  GLY12       0.2014
     57  C         34.7940   34.6070   19.6950 C.2    12  GLY12       0.2638
     58  O         35.9970   34.5320   19.4100 O.2    12  GLY12      -0.2714
     59  N         33.8200   34.6940   18.8170 N.am   13  ASN13      -0.1972
     60  CA        34.0470   34.6960   17.3660 C.3    13  ASN13       0.1688
     61  C         32.8620   35.3720   16.6810 C.2    13  ASN13       0.2292
     62  O         31.7740   35.4810   17.2600 O.2    13  ASN13      -0.2864
     63  CB        34.1810   33.2510   16.8720 C.3    13  ASN13       0.1181
     64  CG        32.8410   32.5090   16.8060 C.2    13  ASN13       0.2629
     65  OD1       32.1700   32.5430   15.7770 O.2    13  ASN13      -0.2716
     66  ND2       32.4030   31.8280   17.8520 N.am   13  ASN13      -0.0877
     67  N         43.5410   30.7280   15.9340 N.3    31  CYS31      -0.1235
     68  CA        42.5560   31.2210   16.9390 C.3    31  CYS31       0.1677
     69  C         41.3010   30.3440   16.9750 C.2    31  CYS31       0.2270
     70  O         40.7050   30.1240   18.0400 O.2    31  CYS31      -0.2867
     71  CB        42.1150   32.6530   16.6250 C.3    31  CYS31       0.0956
     72  SG        43.5000   33.8680   16.8180 S.3    31  CYS31      -0.0801
     73  N         42.0810   27.3650   18.8830 N.3    34  HIS34      -0.1226
     74  CA        42.2340   27.8350   20.2690 C.3    34  HIS34       0.1752
     75  C         40.8510   27.9170   20.9350 C.2    34  HIS34       0.2596
     76  O         40.6510   27.4370   22.0610 O.2    34  HIS34      -0.2718
     77  CB        42.9090   29.2150   20.2750 C.3    34  HIS34       0.0759
     78  CG        43.4900   29.6150   21.6380 C.ar   34  HIS34       0.0818
     79  ND1       43.3760   30.9120   22.1310 N.ar   34  HIS34      -0.2268
     80  CD2       44.1730   28.9130   22.5820 C.ar   34  HIS34       0.1154
     81  CE1       43.9630   30.9580   23.3140 C.ar   34  HIS34       0.1986
     82  NE2       44.4430   29.7750   23.5980 N.ar   34  HIS34      -0.2212
     83  N         39.9240   28.5190   20.2110 N.am   35  ASP35      -0.1974
     84  CA        38.5390   28.7120   20.6810 C.3    35  ASP35       0.1709
     85  C         37.8170   27.3640   20.8660 C.2    35  ASP35       0.2293
     86  O         36.8930   27.2430   21.6840 O.2    35  ASP35      -0.2864
     87  CB        37.7340   29.5260   19.6580 C.3    35  ASP35       0.1436
     88  CG        37.8890   31.0430   19.8080 C.2    35  ASP35       0.3671
     89  OD1       38.9440   31.5360   20.3600 O.co2  35  ASP35      -0.2456
     90  OD2       36.9630   31.8300   19.3770 O.co2  35  ASP35      -0.2456
     91  N         37.8910   24.6800   28.7120 N.3    40  VAL40      -0.1245
     92  CA        37.9690   26.1330   28.9490 C.3    40  VAL40       0.1561
     93  C         37.0020   26.5100   30.0690 C.2    40  VAL40       0.2260
     94  O         36.0540   25.7720   30.3720 O.2    40  VAL40      -0.2867
     95  CB        37.4940   26.9090   27.7080 C.3    40  VAL40       0.0252
     96  CG1       38.3400   26.6270   26.4650 C.3    40  VAL40       0.0019
     97  CG2       36.0530   26.5800   27.3130 C.3    40  VAL40       0.0019
     98  N         37.7770   37.6220   30.7070 N.3    56  HIS56      -0.1226
     99  CA        37.9110   36.8330   29.4700 C.3    56  HIS56       0.1752
    100  C         38.1050   35.3550   29.8100 C.2    56  HIS56       0.2596
    101  O         38.3920   34.9920   30.9610 O.2    56  HIS56      -0.2718
    102  CB        39.0360   37.3530   28.5230 C.3    56  HIS56       0.0759
    103  CG        40.4720   37.5390   29.0830 C.ar   56  HIS56       0.0818
    104  ND1       41.4050   36.4970   29.1280 N.ar   56  HIS56      -0.2268
    105  CD2       41.1260   38.6340   29.5710 C.ar   56  HIS56       0.1154
    106  CE1       42.5440   36.9740   29.6140 C.ar   56  HIS56       0.1986
    107  NE2       42.3930   38.2440   29.8810 N.ar   56  HIS56      -0.2212
    108  N         37.9180   34.5520   28.7840 N.am   57  THR57      -0.1953
    109  CA        38.0420   33.0980   28.8780 C.3    57  THR57       0.1897
    110  C         39.4870   32.7130   29.1530 C.2    57  THR57       0.2313
    111  O         40.4250   33.3300   28.6280 O.2    57  THR57      -0.2863
    112  CB        37.6320   32.4390   27.5560 C.3    57  THR57       0.1794
    113  OG1       36.2800   32.7460   27.2530 O.3    57  THR57      -0.2208
    114  CG2       37.7580   30.9130   27.5830 C.3    57  THR57       0.0378
    115  N         41.8190   29.1100   29.3450 N.3    59  LEU59      -0.1245
    116  CA        41.8190   27.6940   28.9520 C.3    59  LEU59       0.1561
    117  C         42.9760   26.9110   29.5600 C.2    59  LEU59       0.2260
    118  O         43.8780   27.4820   30.1920 O.2    59  LEU59      -0.2867
    119  CB        41.9560   27.4920   27.4300 C.3    59  LEU59       0.0270
    120  CG        41.9950   28.7680   26.5770 C.3    59  LEU59       0.0019
    121  CD1       41.3650   28.5620   25.1960 C.3    59  LEU59       0.0001
    122  CD2       41.2490   29.9520   27.1930 C.3    59  LEU59       0.0001
    123  N         48.5260   26.8680   20.8370 N.3    67  PHE67      -0.1241
    124  CA        48.2030   28.1850   20.2580 C.3    67  PHE67       0.1605
    125  C         49.5040   28.9590   19.9920 C.2    67  PHE67       0.2264
    126  O         49.6660   29.5960   18.9430 O.2    67  PHE67      -0.2867
    127  CB        47.3070   28.9640   21.2320 C.3    67  PHE67       0.0534
    128  CG        46.7690   30.2840   20.6650 C.ar   67  PHE67      -0.0203
    129  CD1       46.2730   30.3420   19.3560 C.ar   67  PHE67      -0.0042
    130  CD2       46.7700   31.4350   21.4620 C.ar   67  PHE67      -0.0042
    131  CE1       45.7850   31.5520   18.8440 C.ar   67  PHE67      -0.0003
    132  CE2       46.2830   32.6450   20.9500 C.ar   67  PHE67      -0.0003
    133  CZ        45.7920   32.7030   19.6410 C.ar   67  PHE67      -0.0000
    134  N         51.3260   40.2050   16.1860 N.3    82  PHE82      -0.1227
    135  CA        50.4940   41.1390   16.9630 C.3    82  PHE82       0.1736
    136  C         49.6010   40.3800   17.9530 C.2    82  PHE82       0.2595
    137  O         49.5010   40.7420   19.1330 O.2    82  PHE82      -0.2718
    138  CB        49.5970   41.9800   16.0490 C.3    82  PHE82       0.0547
    139  CG        48.6700   42.9000   16.8490 C.ar   82  PHE82      -0.0202
    140  CD1       49.1550   44.1080   17.3670 C.ar   82  PHE82      -0.0042
    141  CD2       47.3390   42.5300   17.0720 C.ar   82  PHE82      -0.0042
    142  CE1       48.3140   44.9350   18.1220 C.ar   82  PHE82      -0.0003
    143  CE2       46.4990   43.3540   17.8300 C.ar   82  PHE82      -0.0003
    144  CZ        46.9880   44.5550   18.3580 C.ar   82  PHE82      -0.0000
    145  N         48.9630   39.3370   17.4570 N.am   83  VAL83      -0.1980
    146  CA        48.0510   38.5220   18.2760 C.3    83  VAL83       0.1595
    147  C         48.8410   37.7470   19.3450 C.2    83  VAL83       0.2287
    148  O         48.3660   37.5550   20.4730 O.2    83  VAL83      -0.2864
    149  CB        47.2620   37.5580   17.3840 C.3    83  VAL83       0.0276
    150  CG1       46.4750   36.5140   18.1800 C.3    83  VAL83       0.0022
    151  CG2       46.2290   38.2730   16.5070 C.3    83  VAL83       0.0022
    152  N         50.1970   40.2620   22.0970 N.3    86  MET86      -0.1230
    153  CA        49.0430   40.7280   22.8900 C.3    86  MET86       0.1702
    154  C         48.6040   39.6800   23.9240 C.2    86  MET86       0.2592
    155  O         48.5130   39.9670   25.1260 O.2    86  MET86      -0.2718
    156  CB        47.8400   41.0120   21.9860 C.3    86  MET86       0.0401
    157  CG        47.9380   42.3540   21.2600 C.3    86  MET86       0.0596
    158  SD        47.4280   43.7270   22.2700 S.3    86  MET86      -0.1393
    159  CE        46.2550   43.1670   23.4850 C.3    86  MET86       0.0692
    160  N         48.3440   38.4870   23.4240 N.am   87  TYR87      -0.1976
    161  CA        47.8130   37.3770   24.2360 C.3    87  TYR87       0.1639
    162  C         48.7990   36.8520   25.2920 C.2    87  TYR87       0.2290
    163  O         48.4410   36.6730   26.4650 O.2    87  TYR87      -0.2864
    164  CB        47.4330   36.1850   23.3500 C.3    87  TYR87       0.0560
    165  CG        46.7010   35.0850   24.1290 C.ar   87  TYR87      -0.0198
    166  CD1       45.3430   35.2330   24.4400 C.ar   87  TYR87      -0.0009
    167  CD2       47.3860   33.9330   24.5350 C.ar   87  TYR87      -0.0009
    168  CE1       44.6750   34.2350   25.1620 C.ar   87  TYR87       0.0417
    169  CE2       46.7180   32.9360   25.2590 C.ar   87  TYR87       0.0417
    170  CZ        45.3630   33.0880   25.5730 C.ar   87  TYR87       0.1957
    171  OH        44.7140   32.1220   26.2760 O.3    87  TYR87      -0.2866
    172  N         48.1690   40.9010   28.0170 N.3    91  ILE91      -0.1245
    173  CA        46.8750   40.8130   28.7550 C.3    91  ILE91       0.1561
    174  C         47.0030   40.1130   30.1190 C.2    91  ILE91       0.2260
    175  O         46.0460   40.0670   30.9070 O.2    91  ILE91      -0.2867
    176  CB        45.8040   40.1010   27.9310 C.3    91  ILE91       0.0252
    177  CG1       46.1840   38.6750   27.5360 C.3    91  ILE91       0.0019
    178  CG2       45.4790   40.8350   26.6270 C.3    91  ILE91       0.0019
    179  CD1       44.9930   37.8690   27.0120 C.3    91  ILE91       0.0001
@<TRIPOS>BOND
     1    20    19    1
     2    29    27   ar
     3    29    30   ar
     4    18    19   ar
     5    18    16   ar
     6    27    26   ar
     7    19    17   ar
     8    12    11    2
     9    32    30   ar
    10    32    34   ar
    11    30    28   ar
    12    16    14   ar
    13    11    10    1
    14    17    15   ar
    15    21    22    1
    16    26    28   ar
    17    26    25    1
    18    14    15   ar
    19    14    13    1
    20    28    31   ar
    21    34    33   ar
    22    10    13    1
    23    10     9    1
    24    25    22    1
    25    40    39    1
    26    40    72    1
    27    65    64    2
    28    22    23    1
    29    67    68    1
    30   138   139    1
    31   138   135    1
    32    33    31   ar
    33   134   135    1
    34    35    23   am
    35    35    36    1
    36   151   149    1
    37    39    36    1
    38    71    72    1
    39    71    68    1
    40    61    62    2
    41    61    60    1
    42    64    63    1
    43    64    66   am
    44    23    24    2
    45   139   141   ar
    46   139   140   ar
    47    63    60    1
    48    68    69    1
    49   135   136    1
    50    69    70    2
    51   141   143   ar
    52    36    37    1
    53    60    59    1
    54   140   142   ar
    55   149   150    1
    56   149   146    1
    57   145   136   am
    58   145   146    1
    59    38    37    2
    60   143   144   ar
    61   136   137    2
    62    37    41   am
    63   142   144   ar
    64   146   147    1
    65    59    57   am
    66   131   129   ar
    67   131   133   ar
    68    73    74    1
    69   126   125    2
    70   147   148    2
    71   129   128   ar
    72    41    42    1
    73     8     6    1
    74    90    88   ar
    75    58    57    2
    76   133   132   ar
    77    87    88    1
    78    87    84    1
    79     3     4    2
    80     3     2    1
    81    57    56    1
    82    88    89   ar
    83   125   124    1
    84     6     5    1
    85    83    84    1
    86    83    75   am
    87   124   123    1
    88   124   127    1
    89    74    77    1
    90    74    75    1
    91    77    78    1
    92    42    43    1
    93     2     5    1
    94     2     1    1
    95   128   127    1
    96   128   130   ar
    97    84    85    1
    98    85    86    2
    99    48    47    2
   100    75    76    2
   101   132   130   ar
   102    44    43    2
   103    43    45   am
   104     5     7    1
   105    56    55    1
   106   157   156    1
   107   157   158    1
   108    78    79   ar
   109    78    80   ar
   110    47    55   am
   111    47    46    1
   112    45    46    1
   113   156   153    1
   114   152   153    1
   115    79    81   ar
   116   158   159    1
   117    80    82   ar
   118    46    49    1
   119   153   154    1
   120    81    82   ar
   121   164   165    1
   122   164   161    1
   123    49    50    1
   124   160   154   am
   125   160   161    1
   126    51    50   ar
   127    51    53   ar
   128   154   155    2
   129   165   166   ar
   130   165   167   ar
   131   161   162    1
   132    50    52   ar
   133   166   168   ar
   134   167   169   ar
   135    53    54   ar
   136   168   170   ar
   137   121   120    1
   138   169   170   ar
   139   162   163    2
   140   170   171    1
   141    52    54   ar
   142    96    95    1
   143   120   122    1
   144   120   119    1
   145   178   176    1
   146   179   177    1
   147   113   112    1
   148    97    95    1
   149   119   116    1
   150   177   176    1
   151   112   114    1
   152   112   109    1
   153    95    92    1
   154   176   173    1
   155   172   173    1
   156   102   103    1
   157   102    99    1
   158   111   110    2
   159    91    92    1
   160   173   174    1
   161   108   109    1
   162   108   100   am
   163   109   110    1
   164    92    93    1
   165   116   115    1
   166   116   117    1
   167   103   104   ar
   168   103   105   ar
   169   104   106   ar
   170    99   100    1
   171    99    98    1
   172   117   118    2
   173   105   107   ar
   174   106   107   ar
   175   100   101    2
   176    93    94    2
   177   174   175    2
