@<TRIPOS>MOLECULE
tmp/1pojB00.pdb
 178 170 0 0 0
SMALL
GASTEIGER

@<TRIPOS>ATOM
      1  N         27.9520    1.8920   51.9290 N.3    68  HIS68      -0.1241
      2  CA        28.6780    0.6400   52.0590 C.3    68  HIS68       0.1621
      3  C         28.0760   -0.4440   51.1850 C.2    68  HIS68       0.2264
      4  O         27.4140   -1.3530   51.6770 O.2    68  HIS68      -0.2867
      5  CB        28.6660    0.1750   53.5100 C.3    68  HIS68       0.0745
      6  CG        29.8160   -0.7120   53.8630 C.ar   68  HIS68       0.0817
      7  ND1       31.1090   -0.2480   53.9540 N.ar   68  HIS68      -0.2268
      8  CD2       29.8720   -2.0360   54.1340 C.ar   68  HIS68       0.1154
      9  CE1       31.9130   -1.2480   54.2660 C.ar   68  HIS68       0.1986
     10  NE2       31.1870   -2.3440   54.3810 N.ar   68  HIS68      -0.2212
     11  N         28.9090   -3.1440   47.8280 N.3    70  HIS70      -0.1241
     12  CA        29.8480   -3.7830   46.9160 C.3    70  HIS70       0.1621
     13  C         29.3360   -3.7560   45.4830 C.2    70  HIS70       0.2264
     14  O         29.2260   -4.7870   44.8320 O.2    70  HIS70      -0.2867
     15  CB        30.0770   -5.2150   47.3750 C.3    70  HIS70       0.0745
     16  CG        30.8030   -5.3020   48.6740 C.ar   70  HIS70       0.0817
     17  ND1       32.1600   -5.0900   48.7770 N.ar   70  HIS70      -0.2268
     18  CD2       30.3520   -5.4730   49.9380 C.ar   70  HIS70       0.1154
     19  CE1       32.5130   -5.1200   50.0490 C.ar   70  HIS70       0.1986
     20  NE2       31.4340   -5.3500   50.7750 N.ar   70  HIS70      -0.2212
     21  N         31.3940   -9.0230   45.4390 N.3    74  GLY74      -0.1210
     22  CA        32.3190   -9.2920   46.5130 C.3    74  GLY74       0.1956
     23  C         32.4210  -10.7690   46.8000 C.2    74  GLY74       0.2612
     24  O         32.2190  -11.5830   45.9060 O.2    74  GLY74      -0.2717
     25  N         32.7380  -11.1100   48.0460 N.am   75  GLY75      -0.1956
     26  CA        32.8640  -12.5000   48.4300 C.3    75  GLY75       0.1869
     27  C         34.1640  -13.0440   47.8960 C.2    75  GLY75       0.2309
     28  O         35.0580  -12.2680   47.5510 O.2    75  GLY75      -0.2863
     29  N         35.7760  -15.5550   49.6600 N.3    77  GLU77      -0.1245
     30  CA        36.3730  -16.2000   50.8250 C.3    77  GLU77       0.1567
     31  C         36.4070  -17.7120   50.7510 C.2    77  GLU77       0.2260
     32  O         37.2470  -18.3480   51.3800 O.2    77  GLU77      -0.2867
     33  CB        35.6330  -15.8060   52.1000 C.3    77  GLU77       0.0388
     34  CG        35.8680  -14.3890   52.5680 C.3    77  GLU77       0.1160
     35  CD        34.9840  -13.3810   51.8720 C.2    77  GLU77       0.3649
     36  OE1       35.0550  -12.1840   52.2410 O.co2  77  GLU77      -0.2457
     37  OE2       34.2240  -13.7870   50.9620 O.co2  77  GLU77      -0.2457
     38  N         36.3420   -5.3880   48.7740 N.3   105  GLY105     -0.1210
     39  CA        36.5020   -6.0660   50.0390 C.3   105  GLY105      0.1956
     40  C         37.7740   -6.8710   50.1230 C.2   105  GLY105      0.2613
     41  O         38.8670   -6.4100   49.7750 O.2   105  GLY105     -0.2717
     42  N         37.6190   -8.0870   50.6160 N.am  106  THR106     -0.1938
     43  CA        38.7190   -9.0160   50.7620 C.3   106  THR106      0.2028
     44  C         39.4860   -9.1740   49.4280 C.2   106  THR106      0.2642
     45  O         40.6940   -8.9500   49.3560 O.2   106  THR106     -0.2714
     46  CB        38.1630  -10.3820   51.1950 C.3   106  THR106      0.1808
     47  OG1       37.1370  -10.7650   50.2730 O.3   106  THR106     -0.2208
     48  CG2       37.5250  -10.3100   52.5670 C.3   106  THR106      0.0379
     49  N         38.7560   -9.5320   48.3740 N.am  107  ASP107     -0.1971
     50  CA        39.3110   -9.7760   47.0410 C.3   107  ASP107      0.1709
     51  C         39.7410   -8.5270   46.2650 C.2   107  ASP107      0.2293
     52  O         38.9110   -7.7070   45.8830 O.2   107  ASP107     -0.2864
     53  CB        38.2760  -10.5710   46.2420 C.3   107  ASP107      0.1436
     54  CG        38.7940  -11.0470   44.9080 C.2   107  ASP107      0.3671
     55  OD1       38.0320  -11.7600   44.2240 O.co2 107  ASP107     -0.2456
     56  OD2       39.9380  -10.7140   44.5400 O.co2 107  ASP107     -0.2456
     57  N         40.3910   -4.1460   51.5130 N.3   137  TYR137     -0.1241
     58  CA        40.9400   -4.6510   52.7710 C.3   137  TYR137      0.1605
     59  C         42.4570   -4.5060   52.8410 C.2   137  TYR137      0.2264
     60  O         43.0040   -4.1090   53.8720 O.2   137  TYR137     -0.2867
     61  CB        40.6770   -6.1410   52.9400 C.3   137  TYR137      0.0534
     62  CG        39.3580   -6.5690   53.5170 C.ar  137  TYR137     -0.0201
     63  CD1       39.2910   -7.6870   54.3320 C.ar  137  TYR137     -0.0009
     64  CD2       38.1730   -5.9260   53.1870 C.ar  137  TYR137     -0.0009
     65  CE1       38.0810   -8.1620   54.8030 C.ar  137  TYR137      0.0417
     66  CE2       36.9420   -6.3980   53.6490 C.ar  137  TYR137      0.0417
     67  CZ        36.9060   -7.5190   54.4560 C.ar  137  TYR137      0.1957
     68  OH        35.7060   -8.0150   54.9050 O.3   137  TYR137     -0.2866
     69  N         41.1030   -8.3190   61.7670 N.3   166  ASP166     -0.1239
     70  CA        40.3640   -9.3860   61.1110 C.3   166  ASP166      0.1674
     71  C         41.3980  -10.3130   60.4950 C.2   166  ASP166      0.2266
     72  O         42.4570   -9.8680   60.0860 O.2   166  ASP166     -0.2867
     73  CB        39.4490   -8.8010   60.0360 C.3   166  ASP166      0.1410
     74  CG        38.6920   -9.8600   59.2790 C.2   166  ASP166      0.3668
     75  OD1       39.3630  -10.6620   58.5980 O.co2 166  ASP166     -0.2456
     76  OD2       37.4410   -9.8990   59.3580 O.co2 166  ASP166     -0.2456
     77  N         41.8510  -11.4210   57.7560 N.3   168  ARG168     -0.1245
     78  CA        41.8690  -11.2610   56.3010 C.3   168  ARG168      0.1563
     79  C         42.5770   -9.9470   56.0280 C.2   168  ARG168      0.2260
     80  O         42.6130   -9.4440   54.9070 O.2   168  ARG168     -0.2867
     81  CB        40.4530  -11.1910   55.7340 C.3   168  ARG168      0.0307
     82  CG        39.7750  -12.5280   55.5150 C.3   168  ARG168      0.0489
     83  CD        38.8930  -12.9140   56.6760 C.3   168  ARG168      0.2205
     84  NE        37.8590  -11.9120   56.9230 N.pl3 168  ARG168     -0.0865
     85  CZ        36.8290  -11.6610   56.1150 C.cat 168  ARG168      0.5346
     86  NH1       35.9480  -10.7190   56.4460 N.pl3 168  ARG168      0.1354
     87  NH2       36.6710  -12.3490   54.9870 N.pl3 168  ARG168      0.1354
     88  N         37.1840   -1.6340   58.0100 N.3   200  HIS200     -0.1241
     89  CA        36.4130   -2.8590   58.1610 C.3   200  HIS200      0.1621
     90  C         36.8820   -3.3900   59.4930 C.2   200  HIS200      0.2264
     91  O         38.0850   -3.4560   59.7460 O.2   200  HIS200     -0.2867
     92  CB        36.7670   -3.8830   57.0830 C.3   200  HIS200      0.0745
     93  CG        36.4670   -5.3030   57.4730 C.ar  200  HIS200      0.0817
     94  ND1       35.1920   -5.8250   57.4720 N.ar  200  HIS200     -0.2268
     95  CD2       37.2790   -6.3080   57.8820 C.ar  200  HIS200      0.1154
     96  CE1       35.2320   -7.0900   57.8560 C.ar  200  HIS200      0.1986
     97  NE2       36.4870   -7.4080   58.1100 N.ar  200  HIS200     -0.2212
     98  N         30.7930   -1.9770   60.6050 N.3   229  HIS229     -0.1241
     99  CA        30.5400   -3.3070   61.1530 C.3   229  HIS229      0.1621
    100  C         30.6690   -3.3390   62.6790 C.2   229  HIS229      0.2264
    101  O         30.7240   -4.4090   63.2750 O.2   229  HIS229     -0.2867
    102  CB        31.5270   -4.3350   60.5760 C.3   229  HIS229      0.0745
    103  CG        31.4960   -4.4490   59.0830 C.ar  229  HIS229      0.0817
    104  ND1       30.3380   -4.6890   58.3780 N.ar  229  HIS229     -0.2268
    105  CD2       32.4940   -4.4060   58.1670 C.ar  229  HIS229      0.1154
    106  CE1       30.6230   -4.7920   57.0910 C.ar  229  HIS229      0.1986
    107  NE2       31.9240   -4.6250   56.9360 N.ar  229  HIS229     -0.2212
    108  N         29.3010   -6.2200   65.0310 N.3   232  ARG232     -0.1245
    109  CA        29.6500   -7.6290   64.8940 C.3   232  ARG232      0.1563
    110  C         29.8750   -8.3970   66.2030 C.2   232  ARG232      0.2260
    111  O         29.5550   -9.5790   66.2740 O.2   232  ARG232     -0.2867
    112  CB        30.8670   -7.7830   63.9800 C.3   232  ARG232      0.0307
    113  CG        32.1840   -7.2960   64.5310 C.3   232  ARG232      0.0489
    114  CD        33.2550   -7.4880   63.4840 C.3   232  ARG232      0.2205
    115  NE        33.1360   -8.7990   62.8520 N.pl3 232  ARG232     -0.0865
    116  CZ        33.1520   -9.0030   61.5360 C.cat 232  ARG232      0.5346
    117  NH1       33.2930   -7.9760   60.7120 N.pl3 232  ARG232      0.1354
    118  NH2       32.9900  -10.2270   61.0370 N.pl3 232  ARG232      0.1354
    119  N         26.3130   -1.8310   60.5530 N.3   253  THR253     -0.1218
    120  CA        25.8570   -2.6490   59.4350 C.3   253  THR253      0.1862
    121  C         24.5550   -3.3330   59.7710 C.2   253  THR253      0.2287
    122  O         24.4810   -4.1080   60.7230 O.2   253  THR253     -0.2866
    123  CB        26.9080   -3.7130   59.0560 C.3   253  THR253      0.1770
    124  OG1       27.9890   -3.0880   58.3420 O.3   253  THR253     -0.2211
    125  CG2       26.2840   -4.7870   58.1930 C.3   253  THR253      0.0375
    126  N         23.7370   -7.5350   59.9440 N.3   256  ILE256     -0.1245
    127  CA        24.1480   -8.4120   61.0410 C.3   256  ILE256      0.1561
    128  C         22.9870   -8.3700   62.0240 C.2   256  ILE256      0.2260
    129  O         22.6230   -7.2890   62.4720 O.2   256  ILE256     -0.2867
    130  CB        25.4080   -7.8670   61.7410 C.3   256  ILE256      0.0252
    131  CG1       26.5250   -7.6620   60.7210 C.3   256  ILE256      0.0019
    132  CG2       25.8890   -8.8370   62.8020 C.3   256  ILE256      0.0019
    133  CD1       27.7230   -6.9080   61.2880 C.3   256  ILE256      0.0001
    134  N         25.8680   -2.9670   53.4280 N.3   284  ASP284     -0.1239
    135  CA        26.9000   -3.9170   53.0520 C.3   284  ASP284      0.1674
    136  C         26.2760   -4.8180   52.0120 C.2   284  ASP284      0.2266
    137  O         26.4590   -6.0270   52.0140 O.2   284  ASP284     -0.2867
    138  CB        27.3800   -4.7410   54.2450 C.3   284  ASP284      0.1410
    139  CG        28.5920   -5.5900   53.8980 C.2   284  ASP284      0.3668
    140  OD1       29.4090   -5.1230   53.0740 O.co2 284  ASP284     -0.2456
    141  OD2       28.7360   -6.7090   54.4390 O.co2 284  ASP284     -0.2456
    142  N         27.4390   -8.0730   49.6070 N.3   287  GLY287     -0.1210
    143  CA        28.6940   -8.5190   50.1760 C.3   287  GLY287      0.1956
    144  C         28.4510   -9.9400   50.6410 C.2   287  GLY287      0.2613
    145  O         27.3220  -10.4320   50.5540 O.2   287  GLY287     -0.2717
    146  N         29.4880  -10.6090   51.1270 N.am  288  SER288     -0.1938
    147  CA        29.3280  -11.9730   51.6000 C.3   288  SER288      0.2055
    148  C         29.1300  -12.0000   53.1140 C.2   288  SER288      0.2643
    149  O         29.6540  -11.1460   53.8340 O.2   288  SER288     -0.2714
    150  CB        30.5510  -12.8150   51.2020 C.3   288  SER288      0.2130
    151  OG        31.7700  -12.1630   51.5280 O.3   288  SER288     -0.2179
    152  N         28.3520  -12.9660   53.5920 N.am  289  GLN289     -0.1963
    153  CA        28.1110  -13.1140   55.0220 C.3   289  GLN289      0.1718
    154  C         28.7860  -14.4290   55.4020 C.2   289  GLN289      0.2458
    155  O         28.1240  -15.4570   55.6200 O.2   289  GLN289     -0.2730
    156  CB        26.6060  -13.1810   55.3070 C.3   289  GLN289      0.0407
    157  CG        25.8300  -11.8950   54.9920 C.3   289  GLN289      0.0908
    158  CD        25.9680  -10.8310   56.0790 C.2   289  GLN289      0.2608
    159  OE1       25.4170  -10.9720   57.1720 O.2   289  GLN289     -0.2717
    160  NE2       26.7090   -9.7610   55.7800 N.am  289  GLN289     -0.0878
    161  N         30.1250  -14.4250   55.4660 N.am  290  PRO290     -0.2716
    162  CA        30.8270  -15.6550   55.8160 C.3   290  PRO290      0.1536
    163  C         31.0870  -15.6760   57.2980 C.2   290  PRO290      0.2598
    164  O         31.3100  -14.6270   57.9090 O.2   290  PRO290     -0.2715
    165  CB        32.1090  -15.5310   55.0220 C.3   290  PRO290      0.0310
    166  CG        32.4410  -14.0860   55.2460 C.3   290  PRO290      0.0237
    167  CD        31.0880  -13.3650   55.1190 C.3   290  PRO290      0.0939
    168  N         31.0520  -16.8650   57.8780 N.am  291  PHE291     -0.1974
    169  CA        31.3090  -17.0030   59.2990 C.3   291  PHE291      0.1639
    170  C         32.4730  -17.9560   59.5080 C.2   291  PHE291      0.2290
    171  O         32.6900  -18.8400   58.6840 O.2   291  PHE291     -0.2864
    172  CB        30.0410  -17.5040   59.9950 C.3   291  PHE291      0.0560
    173  CG        28.8870  -16.5400   59.8920 C.ar  291  PHE291     -0.0200
    174  CD1       28.1710  -16.4040   58.6960 C.ar  291  PHE291     -0.0042
    175  CD2       28.5650  -15.7010   60.9670 C.ar  291  PHE291     -0.0042
    176  CE1       27.1480  -15.4370   58.5680 C.ar  291  PHE291     -0.0003
    177  CE2       27.5480  -14.7320   60.8510 C.ar  291  PHE291     -0.0003
    178  CZ        26.8380  -14.5990   59.6470 C.ar  291  PHE291     -0.0000
@<TRIPOS>BOND
     1    55    54   ar
     2    56    54   ar
     3    14    13    2
     4    54    53    1
     5    21    22    1
     6    13    12    1
     7    52    51    2
     8    24    23    2
     9    53    50    1
    10    51    50    1
    11    22    23    1
    12    23    25   am
    13    12    15    1
    14    12    11    1
    15    50    49    1
    16    15    16    1
    17    28    27    2
    18    27    26    1
    19    25    26    1
    20    49    44   am
    21    16    17   ar
    22    16    18   ar
    23    38    39    1
    24    17    19   ar
    25    45    44    2
    26    44    43    1
    27   142   143    1
    28    29    30    1
    29    41    40    2
    30    18    20   ar
    31    39    40    1
    32    19    20   ar
    33    40    42   am
    34   143   144    1
    35    47    46    1
    36   145   144    2
    37    42    43    1
    38   144   146   am
    39    31    30    1
    40    31    32    2
    41    43    46    1
    42    30    33    1
    43    37    35   ar
    44   146   147    1
    45     3     4    2
    46     3     2    1
    47    46    48    1
    48   150   151    1
    49   150   147    1
    50    57    58    1
    51   147   148    1
    52    35    36   ar
    53    35    34    1
    54     1     2    1
    55   136   137    2
    56   136   135    1
    57     2     5    1
    58    33    34    1
    59    58    59    1
    60    58    61    1
    61    59    60    2
    62    61    62    1
    63   135   134    1
    64   135   138    1
    65   140   139   ar
    66   148   152   am
    67   148   149    2
    68    64    62   ar
    69    64    66   ar
    70     5     6    1
    71    62    63   ar
    72   152   153    1
    73    66    67   ar
    74     6     7   ar
    75     6     8   ar
    76   139   138    1
    77   139   141   ar
    78     7     9   ar
    79     8    10   ar
    80     9    10   ar
    81    63    65   ar
    82    67    65   ar
    83    67    68    1
    84    80    79    2
    85    87    85    1
    86   157   156    1
    87   157   158    1
    88   165   166    1
    89   165   162    1
    90   153   156    1
    91   153   154    1
    92   167   166    1
    93   167   161    1
    94   154   161   am
    95   154   155    2
    96   161   162    1
    97    82    81    1
    98    82    83    1
    99    81    78    1
   100   160   158   am
   101   162   163    1
   102    79    78    1
   103   158   159    2
   104    85    86    1
   105    85    84    2
   106    78    77    1
   107    83    84    1
   108   107   106   ar
   109   107   105   ar
   110    92    93    1
   111    92    89    1
   112   106   104   ar
   113   163   168   am
   114   163   164    2
   115    94    93   ar
   116    94    96   ar
   117    93    95   ar
   118    96    97   ar
   119   168   169    1
   120    95    97   ar
   121    88    89    1
   122    89    90    1
   123   105   103   ar
   124   125   123    1
   125   124   123    1
   126   104   103   ar
   127   176   174   ar
   128   176   178   ar
   129    75    74   ar
   130   171   170    2
   131   174   173   ar
   132   123   120    1
   133   103   102    1
   134    74    76   ar
   135    74    73    1
   136   169   170    1
   137   169   172    1
   138   120   121    1
   139   120   119    1
   140    90    91    2
   141   178   177   ar
   142   121   122    2
   143   173   172    1
   144   173   175   ar
   145   126   127    1
   146    73    70    1
   147    72    71    2
   148    71    70    1
   149   102    99    1
   150    98    99    1
   151   117   116    1
   152   131   133    1
   153   131   130    1
   154   177   175   ar
   155   118   116    1
   156   127   130    1
   157   127   128    1
   158    70    69    1
   159    99   100    1
   160   116   115    2
   161   130   132    1
   162   128   129    2
   163   100   101    2
   164   115   114    1
   165   114   113    1
   166   112   113    1
   167   112   109    1
   168   109   108    1
   169   109   110    1
   170   110   111    2
