@<TRIPOS>MOLECULE
tmp/1pokA00.pdb
 119 114 0 0 0
SMALL
GASTEIGER

@<TRIPOS>ATOM
      1  N         40.0340   92.1700  115.7430 N.3    68  HIS68      -0.1241
      2  CA        41.4910   92.1510  115.8220 C.3    68  HIS68       0.1621
      3  C         42.0290   91.0870  114.8790 C.2    68  HIS68       0.2264
      4  O         42.3520   89.9750  115.3030 O.2    68  HIS68      -0.2867
      5  CB        41.9310   91.8300  117.2460 C.3    68  HIS68       0.0745
      6  CG        43.2530   92.4130  117.6180 C.ar   68  HIS68       0.0817
      7  ND1       43.3780   93.6650  118.1800 N.ar   68  HIS68      -0.2268
      8  CD2       44.5090   91.9190  117.5160 C.ar   68  HIS68       0.1154
      9  CE1       44.6550   93.9180  118.4110 C.ar   68  HIS68       0.1986
     10  NE2       45.3620   92.8750  118.0180 N.ar   68  HIS68      -0.2212
     11  N         44.7550   90.3920  111.5260 N.3    70  HIS70      -0.1241
     12  CA        45.7610   90.8340  110.5810 C.3    70  HIS70       0.1621
     13  C         45.3230   90.2480  109.2500 C.2    70  HIS70       0.2264
     14  O         45.8690   89.2490  108.8020 O.2    70  HIS70      -0.2867
     15  CB        47.1300   90.2960  111.0130 C.3    70  HIS70       0.0745
     16  CG        47.5150   90.7300  112.3910 C.ar   70  HIS70       0.0817
     17  ND1       48.0420   91.9770  112.6520 N.ar   70  HIS70      -0.2268
     18  CD2       47.3080   90.1500  113.5970 C.ar   70  HIS70       0.1154
     19  CE1       48.1330   92.1490  113.9590 C.ar   70  HIS70       0.1986
     20  NE2       47.6920   91.0560  114.5550 N.ar   70  HIS70      -0.2212
     21  N         58.3910   89.1460  112.9510 N.3    77  GLU77      -0.1245
     22  CA        59.1930   89.4950  114.1200 C.3    77  GLU77       0.1567
     23  C         60.4370   88.6260  114.3010 C.2    77  GLU77       0.2260
     24  O         61.1500   88.7260  115.2980 O.2    77  GLU77      -0.2867
     25  CB        58.2750   89.4490  115.3460 C.3    77  GLU77       0.0388
     26  CG        56.9860   90.2390  115.0610 C.3    77  GLU77       0.1160
     27  CD        55.9940   90.2760  116.2110 C.2    77  GLU77       0.3649
     28  OE1       56.4270   90.4910  117.3690 O.co2  77  GLU77      -0.2457
     29  OE2       54.7760   90.1140  115.9470 O.co2  77  GLU77      -0.2457
     30  N         51.8230   99.2960  115.3340 N.3   137  TYR137     -0.1241
     31  CA        52.5000   99.5000  116.6180 C.3   137  TYR137      0.1605
     32  C         53.1870  100.8560  116.6300 C.2   137  TYR137      0.2264
     33  O         53.2950  101.4920  117.6800 O.2   137  TYR137     -0.2867
     34  CB        53.5960   98.4530  116.8710 C.3   137  TYR137      0.0534
     35  CG        53.1700   97.0740  117.3570 C.ar  137  TYR137     -0.0201
     36  CD1       54.1260   96.1820  117.8440 C.ar  137  TYR137     -0.0009
     37  CD2       51.8370   96.6440  117.2980 C.ar  137  TYR137     -0.0009
     38  CE1       53.7820   94.9040  118.2550 C.ar  137  TYR137      0.0417
     39  CE2       51.4780   95.3550  117.7100 C.ar  137  TYR137      0.0417
     40  CZ        52.4620   94.4880  118.1870 C.ar  137  TYR137      0.1957
     41  OH        52.1330   93.2000  118.5870 O.3   137  TYR137     -0.2866
     42  N         57.9720   95.9290  124.1530 N.3   167  HIS167     -0.1226
     43  CA        59.3680   96.0260  123.7460 C.3   167  HIS167      0.1752
     44  C         59.5000   96.0800  122.2210 C.2   167  HIS167      0.2595
     45  O         60.6040   95.9560  121.6820 O.2   167  HIS167     -0.2718
     46  CB        60.1410   94.8290  124.2860 C.3   167  HIS167      0.0759
     47  CG        59.7260   93.5320  123.6690 C.ar  167  HIS167      0.0818
     48  ND1       60.3310   93.0150  122.5440 N.ar  167  HIS167     -0.2268
     49  CD2       58.7220   92.6790  123.9810 C.ar  167  HIS167      0.1154
     50  CE1       59.7190   91.8990  122.1890 C.ar  167  HIS167      0.1986
     51  NE2       58.7380   91.6730  123.0440 N.ar  167  HIS167     -0.2212
     52  N         58.3760   96.2660  121.5310 N.am  168  ARG168     -0.1980
     53  CA        58.3670   96.3440  120.0690 C.3   168  ARG168      0.1597
     54  C         57.6420   97.6010  119.6210 C.2   168  ARG168      0.2287
     55  O         57.1610   97.6820  118.4920 O.2   168  ARG168     -0.2864
     56  CB        57.6620   95.1280  119.4600 C.3   168  ARG168      0.0334
     57  CG        58.1720   93.7860  119.9440 C.3   168  ARG168      0.0492
     58  CD        57.5300   92.6470  119.1720 C.3   168  ARG168      0.2205
     59  NE        56.0800   92.5640  119.3590 N.pl3 168  ARG168     -0.0865
     60  CZ        55.4820   92.0030  120.4080 C.cat 168  ARG168      0.5346
     61  NH1       56.2080   91.4700  121.3810 N.pl3 168  ARG168      0.1354
     62  NH2       54.1550   91.9580  120.4740 N.pl3 168  ARG168      0.1354
     63  N         47.8710   98.0970  121.6850 N.3   200  HIS200     -0.1241
     64  CA        48.4200   96.7560  121.8360 C.3   200  HIS200      0.1621
     65  C         49.1730   96.8120  123.1520 C.2   200  HIS200      0.2264
     66  O         50.0650   97.6470  123.3260 O.2   200  HIS200     -0.2867
     67  CB        49.4130   96.4280  120.7250 C.3   200  HIS200      0.0745
     68  CG        50.3830   95.3470  121.0910 C.ar  200  HIS200      0.0817
     69  ND1       50.0690   94.0060  121.0150 N.ar  200  HIS200     -0.2268
     70  CD2       51.6450   95.4100  121.5820 C.ar  200  HIS200      0.1154
     71  CE1       51.0960   93.2900  121.4440 C.ar  200  HIS200      0.1986
     72  NE2       52.0640   94.1180  121.7960 N.ar  200  HIS200     -0.2212
     73  N         44.7980   92.4560  124.5930 N.3   229  HIS229     -0.1241
     74  CA        45.7150   91.4790  125.1730 C.3   229  HIS229      0.1621
     75  C         45.9000   91.7340  126.6590 C.2   229  HIS229      0.2264
     76  O         46.9650   91.4500  127.2080 O.2   229  HIS229     -0.2867
     77  CB        47.0800   91.5560  124.4990 C.3   229  HIS229      0.0745
     78  CG        47.0350   91.3320  123.0240 C.ar  229  HIS229      0.0817
     79  ND1       46.4560   92.2300  122.1560 N.ar  229  HIS229     -0.2268
     80  CD2       47.4880   90.3080  122.2620 C.ar  229  HIS229      0.1154
     81  CE1       46.5530   91.7700  120.9210 C.ar  229  HIS229      0.1986
     82  NE2       47.1750   90.6050  120.9580 N.ar  229  HIS229     -0.2212
     83  N         47.3440   89.1120  128.9590 N.3   232  ARG232     -0.1245
     84  CA        48.6840   88.6140  128.6190 C.3   232  ARG232      0.1563
     85  C         49.5630   88.3970  129.8460 C.2   232  ARG232      0.2260
     86  O         50.4870   87.5870  129.8130 O.2   232  ARG232     -0.2867
     87  CB        49.3930   89.5590  127.6320 C.3   232  ARG232      0.0307
     88  CG        49.9740   90.8120  128.2590 C.3   232  ARG232      0.0489
     89  CD        50.6900   91.6840  127.2290 C.3   232  ARG232      0.2205
     90  NE        51.7780   90.9710  126.5600 N.pl3 232  ARG232     -0.0865
     91  CZ        51.7340   90.5260  125.3070 C.cat 232  ARG232      0.5346
     92  NH1       50.6560   90.7200  124.5540 N.pl3 232  ARG232      0.1354
     93  NH2       52.7710   89.8670  124.8130 N.pl3 232  ARG232      0.1354
     94  N         45.3100   83.8540  123.4430 N.3   256  ILE256     -0.1245
     95  CA        46.2140   83.7330  124.5840 C.3   256  ILE256      0.1561
     96  C         45.5380   82.8470  125.6410 C.2   256  ILE256      0.2260
     97  O         44.4110   83.1260  126.0510 O.2   256  ILE256     -0.2867
     98  CB        46.4960   85.1120  125.2090 C.3   256  ILE256      0.0252
     99  CG1       47.0470   86.0640  124.1470 C.3   256  ILE256      0.0019
    100  CG2       47.4810   84.9710  126.3430 C.3   256  ILE256      0.0019
    101  CD1       47.4820   87.4370  124.6880 C.3   256  ILE256      0.0001
    102  N         42.9590   88.1130  117.1990 N.3   284  ASP284     -0.1239
    103  CA        44.3070   88.4650  116.8100 C.3   284  ASP284      0.1674
    104  C         44.7450   87.3750  115.8220 C.2   284  ASP284      0.2266
    105  O         45.9200   87.0070  115.7460 O.2   284  ASP284     -0.2867
    106  CB        45.2300   88.5110  118.0290 C.3   284  ASP284      0.1410
    107  CG        46.5910   89.0970  117.6990 C.2   284  ASP284      0.3668
    108  OD1       46.6400   90.0280  116.8610 O.co2 284  ASP284     -0.2456
    109  OD2       47.6050   88.6420  118.2770 O.co2 284  ASP284     -0.2456
    110  N         48.0420   86.1910  113.3520 N.3   287  GLY287     -0.1210
    111  CA        49.1370   86.9130  113.9620 C.3   287  GLY287      0.1956
    112  C         50.2910   85.9870  114.3140 C.2   287  GLY287      0.2612
    113  O         50.8680   85.3350  113.4400 O.2   287  GLY287     -0.2717
    114  N         50.6100   85.9320  115.6080 N.am  288  SER288     -0.1952
    115  CA        51.6990   85.1190  116.1590 C.3   288  SER288      0.1924
    116  C         53.0300   85.8340  115.9430 C.2   288  SER288      0.2314
    117  O         53.2190   86.9720  116.3850 O.2   288  SER288     -0.2863
    118  CB        51.7380   83.7290  115.5090 C.3   288  SER288      0.2116
    119  OG        52.6010   82.8520  116.2100 O.3   288  SER288     -0.2180
@<TRIPOS>BOND
     1    14    13    2
     2    13    12    1
     3    12    15    1
     4    12    11    1
     5    15    16    1
     6    16    17   ar
     7    16    18   ar
     8    17    19   ar
     9    21    22    1
    10   110   111    1
    11   113   112    2
    12    18    20   ar
    13    19    20   ar
    14   111   112    1
    15    22    23    1
    16    22    25    1
    17    23    24    2
    18   112   114   am
    19     3     4    2
    20     3     2    1
    21    26    25    1
    22    26    27    1
    23    30    31    1
    24   118   115    1
    25   118   119    1
    26   114   115    1
    27     1     2    1
    28   105   104    2
    29     2     5    1
    30   104   103    1
    31   116   115    1
    32   116   117    2
    33    29    27   ar
    34    27    28   ar
    35    31    32    1
    36    31    34    1
    37    32    33    2
    38   103   102    1
    39   103   106    1
    40   108   107   ar
    41    34    35    1
    42     5     6    1
    43    37    35   ar
    44    37    39   ar
    45    35    36   ar
    46     8     6   ar
    47     8    10   ar
    48     6     7   ar
    49   107   106    1
    50   107   109   ar
    51    39    40   ar
    52    36    38   ar
    53    10     9   ar
    54     7     9   ar
    55    40    38   ar
    56    40    41    1
    57    55    54    2
    58    58    59    1
    59    58    57    1
    60    59    60    2
    61    56    57    1
    62    56    53    1
    63    54    53    1
    64    53    52    1
    65    60    62    1
    66    60    61    1
    67    67    68    1
    68    67    64    1
    69    81    82   ar
    70    81    79   ar
    71    82    80   ar
    72    69    68   ar
    73    69    71   ar
    74    68    70   ar
    75    71    72   ar
    76    52    44   am
    77    70    72   ar
    78    45    44    2
    79    63    64    1
    80    64    65    1
    81    79    78   ar
    82    50    48   ar
    83    50    51   ar
    84    44    43    1
    85    80    78   ar
    86    48    47   ar
    87    78    77    1
    88    51    49   ar
    89    65    66    2
    90    94    95    1
    91    47    49   ar
    92    47    46    1
    93    43    42    1
    94    43    46    1
    95    99   101    1
    96    99    98    1
    97    77    74    1
    98    92    91    1
    99    95    98    1
   100    95    96    1
   101    73    74    1
   102    93    91    1
   103    74    75    1
   104    98   100    1
   105    91    90    2
   106    96    97    2
   107    90    89    1
   108    75    76    2
   109    89    88    1
   110    87    88    1
   111    87    84    1
   112    84    83    1
   113    84    85    1
   114    86    85    2
