@<TRIPOS>MOLECULE
tmp/1popA00.pdb
 137 138 0 0 0
SMALL
GASTEIGER

@<TRIPOS>ATOM
      1  N         35.3160   75.7200   23.3700 N.3    19  GLN19      -0.1196
      2  CA        34.0810   76.4460   23.5910 C.3    19  GLN19       0.1782
      3  C         33.9580   76.9700   25.0220 C.2    19  GLN19       0.2306
      4  O         33.1390   77.8610   25.2710 O.2    19  GLN19      -0.2863
      5  CB        32.8750   75.5400   23.2500 C.2    19  GLN19       0.0051
      6  CG        32.8690   74.1620   23.9190 C.2    19  GLN19       0.0584
      7  CD        31.7230   73.2550   23.5140 C.2    19  GLN19       0.2840
      8  OE1       31.8620   72.3540   22.6690 O.2    19  GLN19      -0.2667
      9  NE2       30.5800   73.4300   24.1450 N.am   19  GLN19      -0.0837
     10  N         27.5370   75.8810   26.2850 N.3    23  GLY23      -0.1225
     11  CA        27.1950   74.7440   25.4390 C.3    23  GLY23       0.1811
     12  C         26.9440   75.2590   24.0170 C.2    23  GLY23       0.2280
     13  O         25.7920   75.3110   23.5930 O.2    23  GLY23      -0.2866
     14  N         28.5400   74.0410   21.1730 N.3    25  CYS25      -0.1221
     15  CA        29.1380   73.0670   20.2470 C.3    25  CYS25       0.1808
     16  C         28.4950   73.0470   18.8670 C.2    25  CYS25       0.2601
     17  O         29.1620   72.8750   17.8450 O.2    25  CYS25      -0.2717
     18  CB        29.0840   71.6600   20.8560 C.3    25  CYS25       0.0970
     19  SG        27.3980   71.1420   21.1830 S.3    25  CYS25      -0.0800
     20  N         27.2010   73.3390   18.8470 N.am   26  TRP26      -0.1976
     21  CA        26.4240   73.4480   17.6110 C.3    26  TRP26       0.1640
     22  C         26.9530   74.5330   16.6690 C.2    26  TRP26       0.2290
     23  O         27.0050   74.3290   15.4550 O.2    26  TRP26      -0.2864
     24  CB        24.9550   73.7320   17.9310 C.3    26  TRP26       0.0576
     25  CG        24.7160   74.8960   18.8210 C.ar   26  TRP26       0.0006
     26  CD1       24.8190   74.9200   20.1940 C.ar   26  TRP26       0.0946
     27  CD2       24.3200   76.2140   18.4080 C.ar   26  TRP26       0.0152
     28  NE1       24.5010   76.1820   20.6540 N.ar   26  TRP26      -0.2442
     29  CE2       24.1880   77.0090   19.5920 C.ar   26  TRP26       0.0810
     30  CE3       24.0700   76.7960   17.1360 C.ar   26  TRP26       0.0012
     31  CZ2       23.8120   78.3670   19.5010 C.ar   26  TRP26       0.0191
     32  CZ3       23.6940   78.1480   17.0590 C.ar   26  TRP26       0.0001
     33  CH2       23.5720   78.9120   18.2390 C.ar   26  TRP26       0.0015
     34  N         19.3240   78.0730   21.6810 N.3    61  TYR61      -0.1241
     35  CA        19.2410   78.6140   23.0470 C.3    61  TYR61       0.1605
     36  C         20.5810   79.0260   23.6420 C.2    61  TYR61       0.2264
     37  O         20.8790   78.7670   24.8080 O.2    61  TYR61      -0.2867
     38  CB        18.5700   77.5800   23.9620 C.3    61  TYR61       0.0534
     39  CG        17.1510   77.2720   23.5660 C.ar   61  TYR61      -0.0201
     40  CD1       16.8910   76.4830   22.4350 C.ar   61  TYR61      -0.0009
     41  CD2       16.0570   77.7560   24.2980 C.ar   61  TYR61      -0.0009
     42  CE1       15.5920   76.1880   22.0430 C.ar   61  TYR61       0.0417
     43  CE2       14.7410   77.4600   23.9140 C.ar   61  TYR61       0.0417
     44  CZ        14.5170   76.6770   22.7840 C.ar   61  TYR61       0.1957
     45  OH        13.2260   76.3810   22.3830 O.3    61  TYR61      -0.2866
     46  N         24.1150   79.4430   25.0100 N.3    63  CYS63      -0.1221
     47  CA        24.9440   78.5610   25.8020 C.3    63  CYS63       0.1808
     48  C         24.1590   77.4050   26.3920 C.2    63  CYS63       0.2601
     49  O         24.8230   76.5540   26.9760 O.2    63  CYS63      -0.2717
     50  CB        25.6100   79.3050   26.9470 C.3    63  CYS63       0.0970
     51  SG        26.8310   80.4160   26.2510 S.3    63  CYS63      -0.0800
     52  N         22.8330   77.3210   26.2690 N.am   64  ASN64      -0.1960
     53  CA        22.0430   76.2070   26.7940 C.3    64  ASN64       0.1819
     54  C         21.8710   75.1050   25.7500 C.2    64  ASN64       0.2622
     55  O         21.2580   74.0840   26.0680 O.2    64  ASN64      -0.2715
     56  CB        20.6220   76.6240   27.2180 C.3    64  ASN64       0.1195
     57  CG        20.5260   77.6420   28.3330 C.2    64  ASN64       0.2630
     58  OD1       19.8260   78.6560   28.2150 O.2    64  ASN64      -0.2716
     59  ND2       21.1850   77.3940   29.4450 N.am   64  ASN64      -0.0877
     60  N         22.3940   75.2720   24.5380 N.am   65  GLY65      -0.1940
     61  CA        22.2700   74.2770   23.4970 C.3    65  GLY65       0.2014
     62  C         21.6270   74.8640   22.2540 C.2    65  GLY65       0.2639
     63  O         21.0270   75.9540   22.3340 O.2    65  GLY65      -0.2714
     64  N         21.7000   74.1690   21.1170 N.am   66  GLY66      -0.1939
     65  CA        21.0730   74.6170   19.8810 C.3    66  GLY66       0.2014
     66  C         21.1610   73.6000   18.7560 C.2    66  GLY66       0.2639
     67  O         21.4400   72.4150   19.0000 O.2    66  GLY66      -0.2714
     68  N         20.9560   74.0630   17.5380 N.am   67  TYR67      -0.1960
     69  CA        20.8630   73.2040   16.3540 C.3    67  TYR67       0.1756
     70  C         21.8630   73.5320   15.2510 C.2    67  TYR67       0.2461
     71  O         21.8320   74.6510   14.7270 O.2    67  TYR67      -0.2730
     72  CB        19.4500   73.2910   15.7650 C.3    67  TYR67       0.0574
     73  CG        18.3760   72.9760   16.7660 C.ar   67  TYR67      -0.0198
     74  CD1       18.1450   71.6460   17.1450 C.ar   67  TYR67      -0.0009
     75  CD2       17.6050   73.9970   17.3610 C.ar   67  TYR67      -0.0009
     76  CE1       17.1780   71.3290   18.0970 C.ar   67  TYR67       0.0417
     77  CE2       16.6250   73.6890   18.3190 C.ar   67  TYR67       0.0417
     78  CZ        16.4230   72.3460   18.6760 C.ar   67  TYR67       0.1957
     79  OH        15.4770   71.9950   19.6160 O.3    67  TYR67      -0.2866
     80  N         22.7230   72.5640   14.8670 N.am   68  PRO68      -0.2716
     81  CA        23.7210   72.6780   13.7840 C.3    68  PRO68       0.1536
     82  C         23.0620   73.0960   12.4690 C.2    68  PRO68       0.2598
     83  O         23.5500   73.9910   11.7910 O.2    68  PRO68      -0.2715
     84  CB        24.3670   71.2930   13.7080 C.3    68  PRO68       0.0310
     85  CG        24.2130   70.8430   15.1180 C.3    68  PRO68       0.0237
     86  CD        22.7870   71.2000   15.4340 C.3    68  PRO68       0.0939
     87  N         21.9300   72.4820   12.1120 N.am   69  TRP69      -0.1974
     88  CA        21.2210   72.8240   10.8880 C.3    69  TRP69       0.1640
     89  C         20.6760   74.2680   10.8980 C.2    69  TRP69       0.2290
     90  O         20.7190   74.8930    9.8350 O.2    69  TRP69      -0.2864
     91  CB        20.0570   71.8300   10.6350 C.3    69  TRP69       0.0576
     92  CG        19.0560   71.6280   11.7280 C.ar   69  TRP69       0.0006
     93  CD1       19.1440   70.6900   12.7210 C.ar   69  TRP69       0.0946
     94  CD2       17.8510   72.3690   11.9590 C.ar   69  TRP69       0.0152
     95  NE1       18.0640   70.8090   13.5620 N.ar   69  TRP69      -0.2442
     96  CE2       17.2560   71.8250   13.1350 C.ar   69  TRP69       0.0810
     97  CE3       17.2060   73.4480   11.3060 C.ar   69  TRP69       0.0012
     98  CZ2       16.0480   72.3280   13.6540 C.ar   69  TRP69       0.0191
     99  CZ3       16.0100   73.9460   11.8260 C.ar   69  TRP69       0.0001
    100  CH2       15.4470   73.3790   12.9880 C.ar   69  TRP69       0.0015
    101  N         26.4890   64.5470   15.0690 N.3   133  VAL133     -0.1245
    102  CA        26.1220   64.5100   16.4880 C.3   133  VAL133      0.1561
    103  C         26.4830   63.1310   17.1100 C.2   133  VAL133      0.2260
    104  O         26.5990   62.1120   16.3970 O.2   133  VAL133     -0.2867
    105  CB        24.5940   64.7630   16.7060 C.3   133  VAL133      0.0252
    106  CG1       24.1870   66.0690   16.0070 C.3   133  VAL133      0.0019
    107  CG2       23.7320   63.6380   16.0910 C.3   133  VAL133      0.0019
    108  N         22.1220   61.1550   21.8850 N.3   157  VAL157     -0.1231
    109  CA        22.9480   62.2330   21.3090 C.3   157  VAL157      0.1692
    110  C         22.6890   63.5660   22.0020 C.2   157  VAL157      0.2592
    111  O         21.5320   63.9000   22.2780 O.2   157  VAL157     -0.2718
    112  CB        22.7240   62.4490   19.7560 C.3   157  VAL157      0.0266
    113  CG1       23.2480   61.1910   19.0640 C.3   157  VAL157      0.0020
    114  CG2       21.2760   62.6710   19.3740 C.3   157  VAL157      0.0020
    115  N         23.7960   64.2360   22.2660 N.am  158  ASP158     -0.1960
    116  CA        23.8110   65.4940   23.0280 C.3   158  ASP158      0.1840
    117  C         24.9140   66.4930   22.6190 C.2   158  ASP158      0.2622
    118  O         25.0820   67.5560   23.2530 O.2   158  ASP158     -0.2715
    119  CB        23.9690   65.1480   24.5430 C.3   158  ASP158      0.1450
    120  CG        25.2010   64.3360   24.8850 C.2   158  ASP158      0.3671
    121  OD1       26.3050   64.6240   24.4050 O.co2 158  ASP158     -0.2456
    122  OD2       25.1010   63.3900   25.6790 O.co2 158  ASP158     -0.2456
    123  N         25.7650   66.1920   21.6340 N.am  159  HIS159     -0.1959
    124  CA        26.9280   67.0520   21.3520 C.3   159  HIS159      0.1787
    125  C         27.1400   67.0910   19.8480 C.2   159  HIS159      0.2620
    126  O         26.9000   66.0500   19.2350 O.2   159  HIS159     -0.2715
    127  CB        28.0810   66.4290   22.1050 C.3   159  HIS159      0.0785
    128  CG        29.4060   67.0920   22.0430 C.ar  159  HIS159      0.0821
    129  ND1       29.6870   68.3920   22.4330 N.ar  159  HIS159     -0.2267
    130  CD2       30.5820   66.5690   21.5890 C.ar  159  HIS159      0.1154
    131  CE1       30.9730   68.6550   22.2170 C.ar  159  HIS159      0.1986
    132  NE2       31.5180   67.5570   21.7110 N.ar  159  HIS159     -0.2212
    133  N         27.4960   68.2400   19.2600 N.am  160  ALA160     -0.1977
    134  CA        27.6810   68.3690   17.8070 C.3   160  ALA160      0.1597
    135  C         29.1510   68.6370   17.5540 C.2   160  ALA160      0.2287
    136  O         29.7240   69.4980   18.2130 O.2   160  ALA160     -0.2864
    137  CB        26.8300   69.5330   17.2590 C.3   160  ALA160      0.0319
@<TRIPOS>BOND
     1    90    89    2
     2    91    88    1
     3    91    92    1
     4    88    89    1
     5    88    87    1
     6    97    99   ar
     7    97    94   ar
     8    92    94   ar
     9    92    93   ar
    10    83    82    2
    11    99   100   ar
    12    94    96   ar
    13    87    82   am
    14    82    81    1
    15    93    95   ar
    16   100    98   ar
    17    96    95   ar
    18    96    98   ar
    19    84    81    1
    20    84    85    1
    21    81    80    1
    22    71    70    2
    23    80    70   am
    24    80    86    1
    25   101   102    1
    26    85    86    1
    27    70    69    1
    28    23    22    2
    29    72    69    1
    30    72    73    1
    31   106   105    1
    32   107   105    1
    33    69    68    1
    34   104   103    2
    35   102   105    1
    36   102   103    1
    37    22    21    1
    38    73    74   ar
    39    73    75   ar
    40    32    30   ar
    41    32    33   ar
    42    30    27   ar
    43    74    76   ar
    44   137   134    1
    45    75    77   ar
    46    68    66   am
    47   135   134    1
    48   135   136    2
    49    21    24    1
    50    21    20    1
    51   134   133    1
    52    17    16    2
    53    24    25    1
    54    76    78   ar
    55    33    31   ar
    56    77    78   ar
    57    27    25   ar
    58    27    29   ar
    59    78    79    1
    60    66    67    2
    61    66    65    1
    62    25    26   ar
    63    20    16   am
    64    16    15    1
    65   113   112    1
    66   126   125    2
    67   133   125   am
    68   114   112    1
    69    31    29   ar
    70    29    28   ar
    71   112   109    1
    72   125   124    1
    73    65    64    1
    74    26    28   ar
    75    15    18    1
    76    15    14    1
    77    18    19    1
    78    64    62   am
    79   109   108    1
    80   109   110    1
    81   124   123    1
    82   124   127    1
    83   130   132   ar
    84   130   128   ar
    85   123   117   am
    86    34    35    1
    87   132   131   ar
    88   110   115   am
    89   110   111    2
    90    42    40   ar
    91    42    44   ar
    92   128   127    1
    93   128   129   ar
    94   131   129   ar
    95    62    63    2
    96    62    61    1
    97   115   116    1
    98    45    44    1
    99    40    39   ar
   100   117   116    1
   101   117   118    2
   102     8     7    2
   103    44    43   ar
   104   116   119    1
   105    35    36    1
   106    35    38    1
   107     5     2    1
   108     5     6    2
   109     1     2    1
   110    61    60    1
   111     7     6    1
   112     7     9   am
   113    39    38    1
   114    39    41   ar
   115     2     3    1
   116    13    12    2
   117    36    37    2
   118    43    41   ar
   119    12    11    1
   120   121   120   ar
   121    60    54   am
   122   119   120    1
   123   120   122   ar
   124    46    47    1
   125     3     4    2
   126    11    10    1
   127    54    55    2
   128    54    53    1
   129    47    48    1
   130    47    50    1
   131    51    50    1
   132    52    48   am
   133    52    53    1
   134    48    49    2
   135    53    56    1
   136    56    57    1
   137    58    57    2
   138    57    59   am
