@<TRIPOS>MOLECULE
tmp/1powB00.pdb
 165 160 0 0 0
SMALL
GASTEIGER

@<TRIPOS>ATOM
      1  N        -21.3530   76.3540    4.5690 N.3    84  ASN84      -0.1240
      2  CA       -21.8410   76.9540    5.8060 C.3    84  ASN84       0.1653
      3  C        -21.9790   75.9640    6.9300 C.2    84  ASN84       0.2266
      4  O        -21.7780   76.3410    8.0920 O.2    84  ASN84      -0.2867
      5  CB       -23.1850   77.6530    5.6070 C.3    84  ASN84       0.1155
      6  CG       -22.9840   79.0770    5.0950 C.2    84  ASN84       0.2627
      7  OD1      -22.2330   79.3180    4.1550 O.2    84  ASN84      -0.2716
      8  ND2      -23.6100   80.1110    5.6130 N.am   84  ASN84      -0.0877
      9  N        -30.4320   82.1620   14.1040 N.3   386  VAL386     -0.1231
     10  CA       -29.5200   83.2390   14.4550 C.3   386  VAL386      0.1692
     11  C        -30.2500   84.5110   14.1170 C.2   386  VAL386      0.2593
     12  O        -30.8070   84.5950   13.0190 O.2   386  VAL386     -0.2718
     13  CB       -28.2360   83.0810   13.6390 C.3   386  VAL386      0.0266
     14  CG1      -27.3830   84.3290   13.6750 C.3   386  VAL386      0.0020
     15  CG2      -27.4420   81.9320   14.2430 C.3   386  VAL386      0.0020
     16  N        -30.2730   85.4650   15.0480 N.am  387  GLY387     -0.1942
     17  CA       -30.9760   86.7160   14.8520 C.3   387  GLY387      0.2014
     18  C        -31.5440   87.2000   16.1770 C.2   387  GLY387      0.2639
     19  O        -30.9810   86.8760   17.2270 O.2   387  GLY387     -0.2714
     20  N        -32.6450   87.9490   16.2230 N.am  388  ASP388     -0.1957
     21  CA       -33.2320   88.3860   17.4860 C.3   388  ASP388      0.1840
     22  C        -33.6870   87.2070   18.3310 C.2   388  ASP388      0.2621
     23  O        -33.7500   87.3150   19.5560 O.2   388  ASP388     -0.2715
     24  CB       -34.4540   89.2910   17.2670 C.3   388  ASP388      0.1450
     25  CG       -34.2220   90.7830   17.0490 C.2   388  ASP388      0.3671
     26  OD1      -33.1180   91.2660   17.2570 O.co2 388  ASP388     -0.2456
     27  OD2      -35.1740   91.4820   16.6920 O.co2 388  ASP388     -0.2456
     28  N        -34.0020   86.0520   17.7440 N.am  389  ILE389     -0.1977
     29  CA       -34.4120   84.8890   18.5300 C.3   389  ILE389      0.1596
     30  C        -33.2870   84.4000   19.4570 C.2   389  ILE389      0.2287
     31  O        -33.5840   83.8110   20.4930 O.2   389  ILE389     -0.2864
     32  CB       -34.9240   83.7360   17.5460 C.3   389  ILE389      0.0276
     33  CG1      -35.4790   82.5550   18.3380 C.3   389  ILE389      0.0022
     34  CG2      -33.7880   83.1980   16.6820 C.3   389  ILE389      0.0022
     35  CD1      -36.6940   82.8190   19.2450 C.3   389  ILE389      0.0001
     36  N        -19.6020   80.9780   14.3810 N.3   411  PHE411     -0.1227
     37  CA       -19.6840   81.3190   12.9740 C.3   411  PHE411      0.1736
     38  C        -21.0110   82.0460   12.7570 C.2   411  PHE411      0.2595
     39  O        -21.0980   83.0070   11.9980 O.2   411  PHE411     -0.2718
     40  CB       -19.6200   80.0380   12.1550 C.3   411  PHE411      0.0547
     41  CG       -19.4520   80.2130   10.6540 C.ar  411  PHE411     -0.0202
     42  CD1      -18.3480   80.8720   10.1540 C.ar  411  PHE411     -0.0042
     43  CD2      -20.4000   79.6760    9.7970 C.ar  411  PHE411     -0.0042
     44  CE1      -18.1830   80.9930    8.7960 C.ar  411  PHE411     -0.0003
     45  CE2      -20.2310   79.7990    8.4340 C.ar  411  PHE411     -0.0003
     46  CZ       -19.1220   80.4580    7.9390 C.ar  411  PHE411     -0.0000
     47  N        -22.0480   81.5700   13.4450 N.am  412  ALA412     -0.1966
     48  CA       -23.3930   82.1180   13.4450 C.3   412  ALA412      0.1728
     49  C        -24.0550   82.2140   12.0840 C.2   412  ALA412      0.2617
     50  O        -24.4720   83.2760   11.6120 O.2   412  ALA412     -0.2715
     51  CB       -23.3770   83.5020   14.1060 C.3   412  ALA412      0.0334
     52  N        -24.1590   81.0690   11.4260 N.am  413  THR413     -0.1937
     53  CA       -24.8420   81.0190   10.1600 C.3   413  THR413      0.2028
     54  C        -26.3510   80.9200   10.3900 C.2   413  THR413      0.2642
     55  O        -26.8560   80.2030   11.2680 O.2   413  THR413     -0.2714
     56  CB       -24.2790   79.8170    9.3310 C.3   413  THR413      0.1808
     57  OG1      -25.0430   79.7930    8.1290 O.3   413  THR413     -0.2208
     58  CG2      -24.3120   78.4790   10.0480 C.3   413  THR413      0.0379
     59  N        -27.0870   81.6960    9.5840 N.am  414  MET414     -0.1976
     60  CA       -28.5330   81.6390    9.5860 C.3   414  MET414      0.1605
     61  C        -28.9260   80.3660    8.8430 C.2   414  MET414      0.2287
     62  O        -28.1170   79.7860    8.1030 O.2   414  MET414     -0.2864
     63  CB       -29.0950   82.8580    8.8890 C.3   414  MET414      0.0413
     64  CG       -29.1210   84.1490    9.7150 C.3   414  MET414      0.0598
     65  SD       -29.2880   85.5980    8.6380 S.3   414  MET414     -0.1393
     66  CE       -31.0140   85.5200    8.2910 C.3   414  MET414      0.0692
     67  N        -36.2630   83.0000   13.0800 N.3   438  GLY438     -0.1210
     68  CA       -36.8170   84.2500   12.5930 C.3   438  GLY438      0.1956
     69  C        -37.1460   84.0520   11.1170 C.2   438  GLY438      0.2612
     70  O        -36.6770   83.0970   10.4940 O.2   438  GLY438     -0.2717
     71  N        -37.9670   84.9090   10.5190 N.am  439  ASP439     -0.1959
     72  CA       -38.2980   84.8380    9.0880 C.3   439  ASP439      0.1840
     73  C        -37.1620   84.8340    8.0600 C.2   439  ASP439      0.2623
     74  O        -37.1960   84.0790    7.0880 O.2   439  ASP439     -0.2715
     75  CB       -39.2520   85.9820    8.7260 C.3   439  ASP439      0.1450
     76  CG       -38.9540   87.4320    9.1060 C.2   439  ASP439      0.3671
     77  OD1      -37.9640   87.8040    9.7600 O.co2 439  ASP439     -0.2456
     78  OD2      -39.8060   88.2450    8.7810 O.co2 439  ASP439     -0.2456
     79  N        -36.0950   85.5900    8.2540 N.am  440  GLY440     -0.1940
     80  CA       -34.9840   85.6390    7.3130 C.3   440  GLY440      0.2014
     81  C        -34.1060   84.3950    7.3950 C.2   440  GLY440      0.2639
     82  O        -33.5290   83.9420    6.3900 O.2   440  GLY440     -0.2714
     83  N        -33.9320   83.8680    8.6120 N.am  441  GLY441     -0.1954
     84  CA       -33.1890   82.6540    8.8290 C.3   441  GLY441      0.1869
     85  C        -33.9610   81.4580    8.3250 C.2   441  GLY441      0.2309
     86  O        -33.3560   80.5400    7.7610 O.2   441  GLY441     -0.2863
     87  N        -33.9280   81.0750    4.3710 N.3   444  MET444     -0.1245
     88  CA       -32.7100   80.4950    3.8110 C.3   444  MET444      0.1570
     89  C        -32.7190   78.9730    3.7170 C.2   444  MET444      0.2261
     90  O        -32.0700   78.4450    2.8160 O.2   444  MET444     -0.2867
     91  CB       -31.4600   80.8830    4.6080 C.3   444  MET444      0.0387
     92  CG       -31.2580   82.3730    4.5320 C.3   444  MET444      0.0595
     93  SD       -29.6490   82.9480    5.1020 S.3   444  MET444     -0.1393
     94  CE       -29.8300   84.6330    4.5770 C.3   444  MET444      0.0692
     95  N        -40.8730   83.4810   13.4790 N.3   464  PHE464     -0.1241
     96  CA       -41.2270   84.7950   13.9840 C.3   464  PHE464      0.1605
     97  C        -41.1590   85.7850   12.8260 C.2   464  PHE464      0.2264
     98  O        -40.0710   86.2790   12.4640 O.2   464  PHE464     -0.2867
     99  CB       -40.2520   85.2100   15.1020 C.3   464  PHE464      0.0534
    100  CG       -40.2910   84.3900   16.4010 C.ar  464  PHE464     -0.0203
    101  CD1      -39.7660   83.1080   16.4580 C.ar  464  PHE464     -0.0042
    102  CD2      -40.8390   84.9390   17.5450 C.ar  464  PHE464     -0.0042
    103  CE1      -39.7910   82.3930   17.6400 C.ar  464  PHE464     -0.0003
    104  CE2      -40.8610   84.2210   18.7260 C.ar  464  PHE464     -0.0003
    105  CZ       -40.3380   82.9460   18.7790 C.ar  464  PHE464     -0.0000
    106  N        -41.4450   89.1810   11.2640 N.3   466  ASN466     -0.1240
    107  CA       -41.4110   90.6030   11.5370 C.3   466  ASN466      0.1653
    108  C        -41.1920   91.3920   10.2560 C.2   466  ASN466      0.2266
    109  O        -41.1640   92.6160   10.2740 O.2   466  ASN466     -0.2867
    110  CB       -40.2950   90.9440   12.5570 C.3   466  ASN466      0.1155
    111  CG       -38.8520   90.4160   12.4550 C.2   466  ASN466      0.2627
    112  OD1      -38.3410   89.7000   11.5640 O.2   466  ASN466     -0.2716
    113  ND2      -38.0740   90.7510   13.4710 N.am  466  ASN466     -0.0877
    114  N        -38.5600   91.6820    8.5790 N.3   468  GLN468     -0.1231
    115  CA       -37.3060   92.3530    8.8480 C.3   468  GLN468      0.1698
    116  C        -36.2040   91.3840    9.2580 C.2   468  GLN468      0.2592
    117  O        -36.4480   90.2730    9.8040 O.2   468  GLN468     -0.2718
    118  CB       -37.3860   93.2920   10.0000 C.3   468  GLN468      0.0381
    119  CG       -38.2740   94.4930   10.0100 C.3   468  GLN468      0.0905
    120  CD       -38.4120   95.0010   11.4250 C.2   468  GLN468      0.2608
    121  OE1      -39.4620   95.4530   11.8470 O.2   468  GLN468     -0.2717
    122  NE2      -37.4070   94.9660   12.2770 N.am  468  GLN468     -0.0878
    123  N        -34.9920   91.9030    9.0350 N.am  469  TYR469     -0.1962
    124  CA       -33.7690   91.3450    9.5790 C.3   469  TYR469      0.1771
    125  C        -33.6070   92.2420   10.7940 C.2   469  TYR469      0.2620
    126  O        -32.8630   93.2200   10.7910 O.2   469  TYR469     -0.2715
    127  CB       -32.5450   91.5330    8.6800 C.3   469  TYR469      0.0574
    128  CG       -32.5200   90.6900    7.4260 C.ar  469  TYR469     -0.0198
    129  CD1      -32.8680   89.3460    7.4530 C.ar  469  TYR469     -0.0009
    130  CD2      -32.1920   91.3070    6.2370 C.ar  469  TYR469     -0.0009
    131  CE1      -32.8960   88.6170    6.2840 C.ar  469  TYR469      0.0417
    132  CE2      -32.2230   90.5750    5.0670 C.ar  469  TYR469      0.0417
    133  CZ       -32.5750   89.2450    5.1040 C.ar  469  TYR469      0.1957
    134  OH       -32.6210   88.5520    3.9200 O.3   469  TYR469     -0.2866
    135  N        -34.2880   91.8930   11.8730 N.am  470  GLY470     -0.1940
    136  CA       -34.4280   92.7230   13.0560 C.3   470  GLY470      0.2014
    137  C        -33.1030   93.0050   13.7180 C.2   470  GLY470      0.2639
    138  O        -32.7840   94.1710   13.9720 O.2   470  GLY470     -0.2714
    139  N        -32.2980   91.9590   13.9220 N.am  471  PHE471     -0.1959
    140  CA       -30.9910   92.1120   14.5370 C.3   471  PHE471      0.1771
    141  C        -30.1400   93.1570   13.8170 C.2   471  PHE471      0.2619
    142  O        -29.4210   93.9210   14.4560 O.2   471  PHE471     -0.2715
    143  CB       -30.3050   90.7400   14.5270 C.3   471  PHE471      0.0574
    144  CG       -29.3410   90.4760   15.6880 C.ar  471  PHE471     -0.0200
    145  CD1      -29.8190   90.3380   16.9780 C.ar  471  PHE471     -0.0042
    146  CD2      -27.9880   90.3480   15.4570 C.ar  471  PHE471     -0.0042
    147  CE1      -28.9620   90.0740   18.0250 C.ar  471  PHE471     -0.0003
    148  CE2      -27.1380   90.0840   16.5170 C.ar  471  PHE471     -0.0003
    149  CZ       -27.6220   89.9470   17.8000 C.ar  471  PHE471     -0.0000
    150  N        -30.2740   93.2710   12.4890 N.am  472  ILE472     -0.1977
    151  CA       -29.4670   94.1970   11.7050 C.3   472  ILE472      0.1596
    152  C        -30.0810   95.5860   11.6910 C.2   472  ILE472      0.2287
    153  O        -29.3340   96.5710   11.7540 O.2   472  ILE472     -0.2864
    154  CB       -29.2970   93.6720   10.2490 C.3   472  ILE472      0.0276
    155  CG1      -28.7220   92.2550   10.2700 C.3   472  ILE472      0.0022
    156  CG2      -28.3180   94.5420    9.4670 C.3   472  ILE472      0.0022
    157  CD1      -27.4600   91.9920   11.1180 C.3   472  ILE472      0.0001
    158  N        -45.3890   89.0600   14.2180 N.3   536  ILE536     -0.1245
    159  CA       -45.1050   89.8560   15.4050 C.3   536  ILE536      0.1561
    160  C        -44.7670   91.2810   15.0240 C.2   536  ILE536      0.2260
    161  O        -44.4550   91.5870   13.8700 O.2   536  ILE536     -0.2867
    162  CB       -43.9060   89.2610   16.2480 C.3   536  ILE536      0.0252
    163  CG1      -42.6580   89.0280   15.4170 C.3   536  ILE536      0.0019
    164  CG2      -44.3510   87.9440   16.8450 C.3   536  ILE536      0.0019
    165  CD1      -41.3900   88.9250   16.2640 C.3   536  ILE536      0.0001
@<TRIPOS>BOND
     1    90    89    2
     2    89    88    1
     3    88    87    1
     4    88    91    1
     5   134   133    1
     6     7     6    2
     7    92    91    1
     8    92    93    1
     9     1     2    1
    10    94    93    1
    11   132   133   ar
    12   132   130   ar
    13     6     5    1
    14     6     8   am
    15   133   131   ar
    16     5     2    1
    17     2     3    1
    18   130   128   ar
    19   131   129   ar
    20    82    81    2
    21     3     4    2
    22    74    73    2
    23    80    81    1
    24    80    79    1
    25    81    83   am
    26   128   129   ar
    27   128   127    1
    28    86    85    2
    29    46    45   ar
    30    46    44   ar
    31    73    79   am
    32    73    72    1
    33    62    61    2
    34    57    56    1
    35    66    65    1
    36    85    84    1
    37    45    43   ar
    38   114   115    1
    39    83    84    1
    40    65    64    1
    41   127   124    1
    42    75    72    1
    43    75    76    1
    44    78    76   ar
    45    44    42   ar
    46    61    60    1
    47   115   116    1
    48   115   118    1
    49    63    60    1
    50    63    64    1
    51   123   116   am
    52   123   124    1
    53    72    71    1
    54    76    77   ar
    55   116   117    2
    56    56    58    1
    57    56    53    1
    58   156   154    1
    59   124   125    1
    60    59    60    1
    61    59    54   am
    62    43    41   ar
    63   118   119    1
    64   119   120    1
    65    42    41   ar
    66    53    54    1
    67    53    52    1
    68   154   155    1
    69   154   151    1
    70   108   109    2
    71   108   107    1
    72   155   157    1
    73    54    55    2
    74    70    69    2
    75    71    69   am
    76    41    40    1
    77   126   125    2
    78   125   135   am
    79    69    68    1
    80   106   107    1
    81   120   121    2
    82   120   122   am
    83    52    49   am
    84   107   110    1
    85   112   111    2
    86    50    49    2
    87   152   151    1
    88   152   153    2
    89   151   150    1
    90   135   136    1
    91    39    38    2
    92    49    48    1
    93    40    37    1
    94   111   110    1
    95   111   113   am
    96    98    97    2
    97   150   141   am
    98    68    67    1
    99    38    37    1
   100    38    47   am
   101    97    96    1
   102    37    36    1
   103    12    11    2
   104   136   137    1
   105    47    48    1
   106    48    51    1
   107    95    96    1
   108    13    14    1
   109    13    15    1
   110    13    10    1
   111   137   139   am
   112   137   138    2
   113   141   142    2
   114   141   140    1
   115   161   160    2
   116   139   140    1
   117    96    99    1
   118     9    10    1
   119    11    10    1
   120    11    16   am
   121   158   159    1
   122   143   140    1
   123   143   144    1
   124    17    16    1
   125    17    18    1
   126   160   159    1
   127    99   100    1
   128   159   162    1
   129   163   162    1
   130   163   165    1
   131   146   144   ar
   132   146   148   ar
   133   144   145   ar
   134    18    20   am
   135    18    19    2
   136    20    21    1
   137   162   164    1
   138   100   101   ar
   139   100   102   ar
   140   101   103   ar
   141   148   149   ar
   142    34    32    1
   143    27    25   ar
   144   145   147   ar
   145    25    26   ar
   146    25    24    1
   147    24    21    1
   148    21    22    1
   149   102   104   ar
   150    32    33    1
   151    32    29    1
   152   103   105   ar
   153    28    22   am
   154    28    29    1
   155   149   147   ar
   156    22    23    2
   157    33    35    1
   158    29    30    1
   159   104   105   ar
   160    30    31    2
