@<TRIPOS>MOLECULE
tmp/1poyD00.pdb
 157 153 0 0 0
SMALL
GASTEIGER

@<TRIPOS>ATOM
      1  N        -54.6410   -6.0500   14.4260 N.3     9  TRP9       -0.1227
      2  CA       -54.1550   -4.7310   14.7600 C.3     9  TRP9        0.1737
      3  C        -55.3690   -3.7980   14.7850 C.2     9  TRP9        0.2596
      4  O        -56.2760   -3.8900   13.9570 O.2     9  TRP9       -0.2718
      5  CB       -53.1300   -4.2720   13.7410 C.3     9  TRP9        0.0564
      6  CG       -51.9510   -5.1420   13.7160 C.ar    9  TRP9        0.0003
      7  CD1      -51.8810   -6.3750   13.1490 C.ar    9  TRP9        0.0946
      8  CD2      -50.6690   -4.8440   14.2090 C.ar    9  TRP9        0.0152
      9  NE1      -50.6010   -6.8500   13.2640 N.ar    9  TRP9       -0.2442
     10  CE2      -49.8250   -5.9370   13.9170 C.ar    9  TRP9        0.0810
     11  CE3      -50.1010   -3.7600   14.9120 C.ar    9  TRP9        0.0012
     12  CZ2      -48.4810   -5.9680   14.2440 C.ar    9  TRP9        0.0191
     13  CZ3      -48.7710   -3.7880   15.2410 C.ar    9  TRP9        0.0001
     14  CH2      -47.9710   -4.8880   14.9190 C.ar    9  TRP9        0.0015
     15  N        -55.3510   -2.8790   15.7290 N.am   10  THR10      -0.1939
     16  CA       -56.4430   -1.9610   15.9350 C.3    10  THR10       0.2028
     17  C        -57.3470   -1.5230   14.7790 C.2    10  THR10       0.2642
     18  O        -58.3700   -2.1800   14.5150 O.2    10  THR10      -0.2714
     19  CB       -56.0090   -0.7250   16.7970 C.3    10  THR10       0.1808
     20  OG1      -54.9130   -0.0330   16.1720 O.3    10  THR10      -0.2208
     21  CG2      -55.6010   -1.1760   18.2040 C.3    10  THR10       0.0379
     22  N        -56.9710   -0.4150   14.1470 N.am   11  GLU11      -0.1963
     23  CA       -57.7350    0.2690   13.0930 C.3    11  GLU11       0.1733
     24  C        -57.9090   -0.3800   11.7210 C.2    11  GLU11       0.2616
     25  O        -58.2340    0.2990   10.7510 O.2    11  GLU11      -0.2715
     26  CB       -57.1820    1.6890   12.9290 C.3    11  GLU11       0.0429
     27  CG       -55.6920    1.7340   12.8040 C.3    11  GLU11       0.1163
     28  CD       -55.0930    3.0900   13.1350 C.2    11  GLU11       0.3649
     29  OE1      -55.8140    4.0850   13.3560 O.co2  11  GLU11      -0.2457
     30  OE2      -53.8610    3.1800   13.1550 O.co2  11  GLU11      -0.2457
     31  N        -57.7810   -1.6970   11.6650 N.am   12  TYR12      -0.1974
     32  CA       -57.8850   -2.4450   10.4260 C.3    12  TYR12       0.1639
     33  C        -59.2940   -2.8650    9.9670 C.2    12  TYR12       0.2290
     34  O        -59.6080   -2.7140    8.7950 O.2    12  TYR12      -0.2864
     35  CB       -56.9910   -3.6680   10.5130 C.3    12  TYR12       0.0560
     36  CG       -55.5660   -3.4260   10.1480 C.ar   12  TYR12      -0.0198
     37  CD1      -55.1290   -2.1780    9.8080 C.ar   12  TYR12      -0.0009
     38  CD2      -54.6530   -4.4870   10.1050 C.ar   12  TYR12      -0.0009
     39  CE1      -53.8270   -1.9680    9.4240 C.ar   12  TYR12       0.0417
     40  CE2      -53.3260   -4.2940    9.7200 C.ar   12  TYR12       0.0417
     41  CZ       -52.9270   -3.0240    9.3760 C.ar   12  TYR12       0.1957
     42  OH       -51.6420   -2.7990    8.9320 O.3    12  TYR12      -0.2866
     43  N        -51.8230   -3.9560   19.5690 N.3    35  GLU35      -0.1245
     44  CA       -51.1390   -2.8470   18.9200 C.3    35  GLU35       0.1567
     45  C        -49.6740   -3.1800   18.6860 C.2    35  GLU35       0.2260
     46  O        -48.8600   -2.2980   18.4020 O.2    35  GLU35      -0.2867
     47  CB       -51.2170   -1.6050   19.7850 C.3    35  GLU35       0.0388
     48  CG       -52.6020   -1.2760   20.2360 C.3    35  GLU35       0.1160
     49  CD       -52.6030   -0.1900   21.2810 C.2    35  GLU35       0.3649
     50  OE1      -51.5360    0.0540   21.8970 O.co2  35  GLU35      -0.2457
     51  OE2      -53.6650    0.4200   21.5000 O.co2  35  GLU35      -0.2457
     52  N        -46.6800   -6.6880   17.6010 N.3    37  ASN37      -0.1240
     53  CA       -46.3670   -8.0800   17.2800 C.3    37  ASN37       0.1653
     54  C        -45.9510   -8.7590   18.5810 C.2    37  ASN37       0.2266
     55  O        -46.3180   -9.9000   18.8750 O.2    37  ASN37      -0.2867
     56  CB       -45.2050   -8.1590   16.3060 C.3    37  ASN37       0.1155
     57  CG       -45.5820   -7.7070   14.9360 C.2    37  ASN37       0.2627
     58  OD1      -46.1450   -8.4640   14.1450 O.2    37  ASN37      -0.2716
     59  ND2      -45.3040   -6.4550   14.6480 N.am   37  ASN37      -0.0877
     60  N        -47.0230   -9.1530   11.3810 N.3    58  SER58      -0.1217
     61  CA       -46.2830   -8.3490   10.4220 C.3    58  SER58       0.1889
     62  C        -45.3770   -9.3300    9.6950 C.2    58  SER58       0.2288
     63  O        -45.1140  -10.4410   10.1980 O.2    58  SER58      -0.2866
     64  CB       -45.3920   -7.3470   11.1220 C.3    58  SER58       0.2089
     65  OG       -46.1330   -6.2570   11.5880 O.3    58  SER58      -0.2183
     66  N        -42.1020   -9.4910    9.2210 N.3    60  TYR60      -0.1241
     67  CA       -40.9330   -9.8970    9.9780 C.3    60  TYR60       0.1605
     68  C        -41.1570  -10.8160   11.1390 C.2    60  TYR60       0.2264
     69  O        -40.1910  -11.1780   11.8100 O.2    60  TYR60      -0.2867
     70  CB       -40.1450   -8.6810   10.4310 C.3    60  TYR60       0.0534
     71  CG       -40.8960   -7.6790   11.2700 C.ar   60  TYR60      -0.0201
     72  CD1      -41.0380   -7.8540   12.6270 C.ar   60  TYR60      -0.0009
     73  CD2      -41.4160   -6.5340   10.7080 C.ar   60  TYR60      -0.0009
     74  CE1      -41.6620   -6.9110   13.4070 C.ar   60  TYR60       0.0417
     75  CE2      -42.0420   -5.5830   11.4810 C.ar   60  TYR60       0.0417
     76  CZ       -42.1630   -5.7770   12.8310 C.ar   60  TYR60       0.1957
     77  OH       -42.7430   -4.8220   13.6350 O.3    60  TYR60      -0.2866
     78  N        -43.2490    1.1210   18.8500 N.3   143  ASP143     -0.1239
     79  CA       -42.7570   -0.1190   18.2580 C.3   143  ASP143      0.1674
     80  C        -41.2350   -0.2160   18.4080 C.2   143  ASP143      0.2266
     81  O        -40.5200    0.6570   17.9140 O.2   143  ASP143     -0.2867
     82  CB       -43.0870   -0.1020   16.7720 C.3   143  ASP143      0.1410
     83  CG       -43.6600   -1.3990   16.2770 C.2   143  ASP143      0.3668
     84  OD1      -44.8040   -1.7450   16.6380 O.co2 143  ASP143     -0.2456
     85  OD2      -42.9720   -2.0660   15.4910 O.co2 143  ASP143     -0.2456
     86  N        -39.7030   -0.1400   14.7880 N.3   146  GLU146     -0.1245
     87  CA       -39.9100    1.0730   14.0450 C.3   146  GLU146      0.1567
     88  C        -39.0490    2.1870   14.6250 C.2   146  GLU146      0.2260
     89  O        -38.3470    2.8970   13.8970 O.2   146  GLU146     -0.2867
     90  CB       -41.3880    1.4600   14.0490 C.3   146  GLU146      0.0388
     91  CG       -42.2580    0.6520   13.1070 C.3   146  GLU146      0.1160
     92  CD       -43.6930    1.0320   13.1610 C.2   146  GLU146      0.3649
     93  OE1      -44.0210    2.2550   13.2030 O.co2 146  GLU146     -0.2457
     94  OE2      -44.5470    0.1630   13.1680 O.co2 146  GLU146     -0.2457
     95  N        -49.2250    3.3410   19.4620 N.3   186  SER186     -0.1217
     96  CA       -49.3130    2.2440   18.5320 C.3   186  SER186      0.1889
     97  C        -50.7950    1.8540   18.4240 C.2   186  SER186      0.2288
     98  O        -51.1460    0.8280   17.8460 O.2   186  SER186     -0.2866
     99  CB       -48.4730    1.0690   19.0150 C.3   186  SER186      0.2089
    100  OG       -47.2980    0.9100   18.2290 O.3   186  SER186     -0.2183
    101  N        -48.1810    6.6390   11.4040 N.3   204  TRP204     -0.1241
    102  CA       -48.5880    5.6090   10.4880 C.3   204  TRP204      0.1605
    103  C        -49.4010    6.2820    9.4280 C.2   204  TRP204      0.2264
    104  O        -50.3660    6.9840    9.7590 O.2   204  TRP204     -0.2867
    105  CB       -49.4390    4.6070   11.2190 C.3   204  TRP204      0.0550
    106  CG       -48.6210    3.6470   11.9280 C.ar  204  TRP204      0.0003
    107  CD1      -47.3640    3.2850   11.6080 C.ar  204  TRP204      0.0946
    108  CD2      -49.0090    2.8420   13.0260 C.ar  204  TRP204      0.0152
    109  NE1      -46.9400    2.2880   12.4230 N.ar  204  TRP204     -0.2442
    110  CE2      -47.9390    1.9870   13.3150 C.ar  204  TRP204      0.0810
    111  CE3      -50.1710    2.7390   13.7960 C.ar  204  TRP204      0.0012
    112  CZ2      -47.9780    1.0520   14.3240 C.ar  204  TRP204      0.0191
    113  CZ3      -50.2140    1.8060   14.8000 C.ar  204  TRP204      0.0001
    114  CH2      -49.1280    0.9750   15.0530 C.ar  204  TRP204      0.0015
    115  N        -43.6430   -1.6020    6.1290 N.3   230  TRP230     -0.1241
    116  CA       -43.9450   -2.8930    6.7550 C.3   230  TRP230      0.1605
    117  C        -45.2030   -3.4800    6.1340 C.2   230  TRP230      0.2264
    118  O        -45.9890   -2.7680    5.5110 O.2   230  TRP230     -0.2867
    119  CB       -44.1430   -2.7540    8.2700 C.3   230  TRP230      0.0550
    120  CG       -44.8050   -1.4610    8.6950 C.ar  230  TRP230      0.0003
    121  CD1      -44.1840   -0.3510    9.2020 C.ar  230  TRP230      0.0946
    122  CD2      -46.1960   -1.1340    8.6220 C.ar  230  TRP230      0.0152
    123  NE1      -45.0980    0.6300    9.4380 N.ar  230  TRP230     -0.2442
    124  CE2      -46.3410    0.1810    9.0870 C.ar  230  TRP230      0.0810
    125  CE3      -47.3350   -1.8240    8.2010 C.ar  230  TRP230      0.0012
    126  CZ2      -47.5740    0.8250    9.1460 C.ar  230  TRP230      0.0191
    127  CZ3      -48.5700   -1.1770    8.2630 C.ar  230  TRP230      0.0001
    128  CH2      -48.6740    0.1290    8.7280 C.ar  230  TRP230      0.0015
    129  N        -48.5330   -6.3800    6.8560 N.3   232  ASP232     -0.1239
    130  CA       -49.2160   -7.3280    7.7310 C.3   232  ASP232      0.1674
    131  C        -49.8720   -8.4870    6.9990 C.2   232  ASP232      0.2266
    132  O        -50.4760   -8.2990    5.9670 O.2   232  ASP232     -0.2867
    133  CB       -50.2210   -6.6070    8.6370 C.3   232  ASP232      0.1410
    134  CG       -49.5390   -5.6860    9.6400 C.2   232  ASP232      0.3668
    135  OD1      -48.3590   -5.3520    9.4560 O.co2 232  ASP232     -0.2456
    136  OD2      -50.1830   -5.2770   10.6000 O.co2 232  ASP232     -0.2456
    137  N        -55.0500    2.7160    4.8760 N.3   268  TYR268     -0.1241
    138  CA       -53.9070    1.8000    4.7570 C.3   268  TYR268      0.1605
    139  C        -54.0010    1.0300    3.4700 C.2   268  TYR268      0.2264
    140  O        -54.9910    0.3600    3.2090 O.2   268  TYR268     -0.2867
    141  CB       -53.8290    0.7750    5.9040 C.3   268  TYR268      0.0534
    142  CG       -53.4520    1.3340    7.2450 C.ar  268  TYR268     -0.0201
    143  CD1      -52.1270    1.6540    7.5310 C.ar  268  TYR268     -0.0009
    144  CD2      -54.4120    1.5670    8.2220 C.ar  268  TYR268     -0.0009
    145  CE1      -51.7720    2.1910    8.7270 C.ar  268  TYR268      0.0417
    146  CE2      -54.0530    2.1080    9.4330 C.ar  268  TYR268      0.0417
    147  CZ       -52.7260    2.4190    9.6710 C.ar  268  TYR268      0.1957
    148  OH       -52.3280    2.9770   10.8440 O.3   268  TYR268     -0.2866
    149  N        -39.2030   -3.5170    7.1040 N.3   302  GLN302     -0.1245
    150  CA       -38.8390   -4.1530    8.3380 C.3   302  GLN302      0.1566
    151  C        -38.8080   -5.6540    8.0750 C.2   302  GLN302      0.2260
    152  O        -39.8190   -6.2740    7.7350 O.2   302  GLN302     -0.2867
    153  CB       -39.8030   -3.7710    9.4470 C.3   302  GLN302      0.0367
    154  CG       -39.8260   -2.2990    9.6840 C.3   302  GLN302      0.0905
    155  CD       -40.5960   -1.9040   10.9110 C.2   302  GLN302      0.2608
    156  OE1      -41.8090   -2.0720   10.9890 O.2   302  GLN302     -0.2717
    157  NE2      -39.9040   -1.3290   11.8600 N.am  302  GLN302     -0.0878
@<TRIPOS>BOND
     1   140   139    2
     2   139   138    1
     3   138   137    1
     4   138   141    1
     5   118   117    2
     6   141   142    1
     7   132   131    2
     8   115   116    1
     9   117   116    1
    10   116   119    1
    11   129   130    1
    12   131   130    1
    13   149   150    1
    14   142   143   ar
    15   142   144   ar
    16   143   145   ar
    17   130   133    1
    18   152   151    2
    19   151   150    1
    20   125   127   ar
    21   125   122   ar
    22   144   146   ar
    23   127   128   ar
    24   119   120    1
    25   150   153    1
    26   122   120   ar
    27   122   124   ar
    28   133   134    1
    29   120   121   ar
    30   145   147   ar
    31   128   126   ar
    32    34    33    2
    33    42    41    1
    34   124   126   ar
    35   124   123   ar
    36   121   123   ar
    37    66    67    1
    38    41    39   ar
    39    41    40   ar
    40    39    37   ar
    41   103   104    2
    42   103   102    1
    43   146   147   ar
    44   153   154    1
    45   135   134   ar
    46   134   136   ar
    47   147   148    1
    48   154   155    1
    49    62    63    2
    50    62    61    1
    51    40    38   ar
    52    37    36   ar
    53    33    32    1
    54    67    70    1
    55    67    68    1
    56    38    36   ar
    57    36    35    1
    58    61    64    1
    59    61    60    1
    60    32    35    1
    61    32    31    1
    62    70    71    1
    63   102   105    1
    64   102   101    1
    65    73    71   ar
    66    73    75   ar
    67    25    24    2
    68   155   156    2
    69   155   157   am
    70    64    65    1
    71    68    69    2
    72   105   106    1
    73    71    72   ar
    74    75    76   ar
    75   107   106   ar
    76   107   109   ar
    77    31    24   am
    78    24    23    1
    79   106   108   ar
    80   109   110   ar
    81    72    74   ar
    82    27    26    1
    83    27    28    1
    84    76    74   ar
    85    76    77    1
    86    26    23    1
    87   108   110   ar
    88   108   111   ar
    89    23    22    1
    90    91    92    1
    91    91    90    1
    92    28    30   ar
    93    28    29   ar
    94     7     9   ar
    95     7     6   ar
    96    92    94   ar
    97    92    93   ar
    98     9    10   ar
    99   110   112   ar
   100     6     5    1
   101     6     8   ar
   102     5     2    1
   103   111   113   ar
   104    89    88    2
   105    10     8   ar
   106    10    12   ar
   107     4     3    2
   108    87    90    1
   109    87    88    1
   110    87    86    1
   111    58    57    2
   112    22    17   am
   113     8    11   ar
   114    12    14   ar
   115   112   114   ar
   116     1     2    1
   117    18    17    2
   118    59    57   am
   119     2     3    1
   120    17    16    1
   121     3    15   am
   122   113   114   ar
   123    11    13   ar
   124    14    13   ar
   125    57    56    1
   126    85    83   ar
   127    15    16    1
   128    16    19    1
   129    20    19    1
   130    83    84   ar
   131    83    82    1
   132    56    53    1
   133    82    79    1
   134    19    21    1
   135    53    52    1
   136    53    54    1
   137    98    97    2
   138    81    80    2
   139   100    99    1
   140    79    80    1
   141    79    78    1
   142    46    45    2
   143    97    96    1
   144    96    99    1
   145    96    95    1
   146    54    55    2
   147    45    44    1
   148    44    43    1
   149    44    47    1
   150    47    48    1
   151    48    49    1
   152    49    51   ar
   153    49    50   ar
