@<TRIPOS>MOLECULE
tmp/1pp9M04.pdb
 135 131 0 0 0
SMALL
GASTEIGER

@<TRIPOS>ATOM
      1  N         59.6540   83.2320   97.7570 N.3     8  ALA8       -0.1231
      2  CA        58.4200   83.3780   96.9900 C.3     8  ALA8        0.1694
      3  C         58.0130   81.9600   96.6040 C.2     8  ALA8        0.2592
      4  O         57.0420   81.7450   95.8780 O.2     8  ALA8       -0.2718
      5  CB        58.6510   84.2230   95.7430 C.3     8  ALA8        0.0304
      6  N         58.7840   80.9990   97.1030 N.am    9  PHE9       -0.1976
      7  CA        58.5350   79.5850   96.8580 C.3     9  PHE9        0.1639
      8  C         59.2500   78.7020   97.8860 C.2     9  PHE9        0.2290
      9  O         58.6260   78.2230   98.8320 O.2     9  PHE9       -0.2864
     10  CB        58.9720   79.1910   95.4410 C.3     9  PHE9        0.0560
     11  CG        58.4690   77.8530   94.9960 C.ar    9  PHE9       -0.0200
     12  CD1       57.1330   77.5680   94.9300 C.ar    9  PHE9       -0.0042
     13  CD2       59.3550   76.8770   94.7470 C.ar    9  PHE9       -0.0042
     14  CE1       56.7210   76.2450   94.5680 C.ar    9  PHE9       -0.0003
     15  CE2       58.9370   75.5810   94.3440 C.ar    9  PHE9       -0.0003
     16  CZ        57.6120   75.3040   94.2610 C.ar    9  PHE9       -0.0000
     17  N         58.9520   79.9240  101.4950 N.3    12  LEU12      -0.1231
     18  CA        57.6710   80.5710  101.7040 C.3    12  LEU12       0.1678
     19  C         57.0220   79.9260  102.9160 C.2    12  LEU12       0.2434
     20  O         56.8960   78.6980  102.9770 O.2    12  LEU12      -0.2733
     21  CB        56.7790   80.3660  100.4850 C.3    12  LEU12       0.0284
     22  CG        55.4550   81.1270  100.4910 C.3    12  LEU12       0.0019
     23  CD1       55.7090   82.6100  100.2530 C.3    12  LEU12       0.0001
     24  CD2       54.5490   80.5590   99.4390 C.3    12  LEU12       0.0001
     25  N         56.6210   80.7320  103.9160 N.am   13  PRO13      -0.2718
     26  CA        55.9880   80.1220  105.0920 C.3    13  PRO13       0.1535
     27  C         54.5620   79.6780  104.7400 C.2    13  PRO13       0.2598
     28  O         53.8190   80.4150  104.0860 O.2    13  PRO13      -0.2715
     29  CB        56.0090   81.2580  106.1240 C.3    13  PRO13       0.0310
     30  CG        57.1300   82.1400  105.6770 C.3    13  PRO13       0.0237
     31  CD        56.9490   82.1450  104.1820 C.3    13  PRO13       0.0939
     32  N         54.1810   78.4760  105.1570 N.am   14  ALA14      -0.1978
     33  CA        52.8440   77.9650  104.8760 C.3    14  ALA14       0.1597
     34  C         52.2380   77.3310  106.1230 C.2    14  ALA14       0.2287
     35  O         52.9580   76.8550  106.9890 O.2    14  ALA14      -0.2864
     36  CB        52.8970   76.9390  103.7430 C.3    14  ALA14       0.0319
     37  N         47.1750   72.9790  106.0550 N.3    18  ILE18      -0.1245
     38  CA        46.2610   73.1370  104.9340 C.3    18  ILE18       0.1561
     39  C         46.0220   71.7560  104.3510 C.2    18  ILE18       0.2260
     40  O         46.9300   70.9250  104.3000 O.2    18  ILE18      -0.2867
     41  CB        46.7630   74.1460  103.8540 C.3    18  ILE18       0.0252
     42  CG1       48.2290   73.9210  103.5000 C.3    18  ILE18       0.0019
     43  CG2       46.5430   75.5420  104.3510 C.3    18  ILE18       0.0019
     44  CD1       48.7700   74.9210  102.5180 C.3    18  ILE18       0.0001
     45  N         43.4580   72.8800   99.4520 N.3    22  TRP22      -0.1241
     46  CA        44.3900   73.9500   99.1300 C.3    22  TRP22       0.1605
     47  C         45.2460   73.5870   97.9050 C.2    22  TRP22       0.2264
     48  O         46.0220   74.4140   97.4330 O.2    22  TRP22      -0.2867
     49  CB        45.2690   74.2670  100.3550 C.3    22  TRP22       0.0550
     50  CG        44.7210   75.4170  101.2210 C.ar   22  TRP22       0.0003
     51  CD1       45.1920   76.7050  101.2670 C.ar   22  TRP22       0.0946
     52  CD2       43.5840   75.3860  102.1020 C.ar   22  TRP22       0.0152
     53  NE1       44.4220   77.4680  102.1090 N.ar   22  TRP22      -0.2442
     54  CE2       43.4270   76.6870  102.6350 C.ar   22  TRP22       0.0810
     55  CE3       42.6820   74.3890  102.4890 C.ar   22  TRP22       0.0012
     56  CZ2       42.4030   77.0150  103.5350 C.ar   22  TRP22       0.0191
     57  CZ3       41.6660   74.7180  103.3800 C.ar   22  TRP22       0.0001
     58  CH2       41.5360   76.0190  103.8910 C.ar   22  TRP22       0.0015
     59  N         44.8160   75.4910   93.8740 N.3    25  GLY25      -0.1210
     60  CA        45.4580   76.6790   93.3640 C.3    25  GLY25       0.1956
     61  C         46.5640   76.2360   92.4300 C.2    25  GLY25       0.2612
     62  O         46.6550   76.7400   91.3170 O.2    25  GLY25      -0.2717
     63  N         47.3990   75.2890   92.8580 N.am   26  SER26      -0.1952
     64  CA        48.4780   74.8280   91.9960 C.3    26  SER26       0.1924
     65  C         47.9080   74.0190   90.8320 C.2    26  SER26       0.2314
     66  O         48.4790   74.0120   89.7430 O.2    26  SER26      -0.2863
     67  CB        49.5040   74.0070   92.7970 C.3    26  SER26       0.2116
     68  OG        48.9850   72.7690   93.2300 O.3    26  SER26      -0.2180
     69  N         48.4960   85.8620   93.1450 N.3   188  LEU188     -0.1245
     70  CA        49.4600   85.3100   94.0800 C.3   188  LEU188      0.1561
     71  C         50.2380   86.3390   94.8660 C.2   188  LEU188      0.2260
     72  O         50.5450   86.1170   96.0340 O.2   188  LEU188     -0.2867
     73  CB        50.4490   84.3960   93.3540 C.3   188  LEU188      0.0270
     74  CG        49.9780   82.9580   93.1440 C.3   188  LEU188      0.0019
     75  CD1       50.9680   82.2110   92.2610 C.3   188  LEU188      0.0001
     76  CD2       49.8230   82.2630   94.4860 C.3   188  LEU188      0.0001
     77  N         48.1910   87.4140   97.6800 N.3   191  LEU191     -0.1231
     78  CA        48.1000   86.3300   98.6470 C.3   191  LEU191      0.1693
     79  C         49.3670   86.2830   99.5040 C.2   191  LEU191      0.2592
     80  O         49.2890   86.1200  100.7240 O.2   191  LEU191     -0.2718
     81  CB        47.9200   84.9900   97.9440 C.3   191  LEU191      0.0284
     82  CG        47.8940   83.8170   98.9250 C.3   191  LEU191      0.0019
     83  CD1       46.6510   83.8900   99.7940 C.3   191  LEU191      0.0001
     84  CD2       47.9290   82.5210   98.1470 C.3   191  LEU191      0.0001
     85  N         50.5250   86.4390   98.8800 N.am  192  HIS192     -0.1976
     86  CA        51.7830   86.3910   99.6140 C.3   192  HIS192      0.1656
     87  C         51.9200   87.4580  100.6870 C.2   192  HIS192      0.2291
     88  O         52.7360   87.3200  101.5970 O.2   192  HIS192     -0.2864
     89  CB        52.9600   86.4670   98.6430 C.3   192  HIS192      0.0771
     90  CG        53.1730   85.1970   97.8810 C.ar  192  HIS192      0.0820
     91  ND1       54.2260   85.0060   97.0140 N.ar  192  HIS192     -0.2267
     92  CD2       52.4510   84.0540   97.8510 C.ar  192  HIS192      0.1154
     93  CE1       54.1410   83.8010   96.4800 C.ar  192  HIS192      0.1986
     94  NE2       53.0730   83.2050   96.9710 N.ar  192  HIS192     -0.2212
     95  N         49.8070   85.3730  103.2200 N.3   195  GLY195     -0.1210
     96  CA        50.1250   83.9710  103.3930 C.3   195  GLY195      0.1956
     97  C         48.7590   83.3300  103.3270 C.2   195  GLY195      0.2612
     98  O         47.7630   84.0440  103.2490 O.2   195  GLY195     -0.2717
     99  N         48.7070   82.0010  103.3780 N.am  196  SER196     -0.1952
    100  CA        47.4500   81.2660  103.2900 C.3   196  SER196      0.1924
    101  C         46.6090   81.1680  104.5590 C.2   196  SER196      0.2314
    102  O         47.1140   81.2830  105.6790 O.2   196  SER196     -0.2863
    103  CB        47.7100   79.8430  102.7900 C.3   196  SER196      0.2116
    104  OG        48.4280   79.8160  101.5730 O.3   196  SER196     -0.2180
    105  N         57.3190   75.9180  102.5250 N.3   211  PHE211     -0.1241
    106  CA        56.5940   75.3720  101.3900 C.3   211  PHE211      0.1605
    107  C         57.3530   74.1740  100.8050 C.2   211  PHE211      0.2264
    108  O         56.7460   73.1840  100.3940 O.2   211  PHE211     -0.2867
    109  CB        56.3950   76.4450  100.3200 C.3   211  PHE211      0.0534
    110  CG        55.5490   75.9870   99.1770 C.ar  211  PHE211     -0.0203
    111  CD1       54.1750   76.1820   99.1780 C.ar  211  PHE211     -0.0042
    112  CD2       56.1280   75.3120   98.1150 C.ar  211  PHE211     -0.0042
    113  CE1       53.3990   75.7040   98.1380 C.ar  211  PHE211     -0.0003
    114  CE2       55.3550   74.8350   97.0750 C.ar  211  PHE211     -0.0003
    115  CZ        53.9870   75.0290   97.0870 C.ar  211  PHE211     -0.0000
    116  N         54.9030   71.1560  100.8260 N.3   215  TYR215     -0.1241
    117  CA        53.8560   71.3590   99.8410 C.3   215  TYR215      0.1605
    118  C         54.3240   71.1530   98.3990 C.2   215  TYR215      0.2264
    119  O         53.4980   70.9620   97.5010 O.2   215  TYR215     -0.2867
    120  CB        53.2070   72.7240  100.0640 C.3   215  TYR215      0.0534
    121  CG        52.4420   72.7230  101.3700 C.ar  215  TYR215     -0.0201
    122  CD1       51.3330   71.8910  101.5400 C.ar  215  TYR215     -0.0009
    123  CD2       52.8930   73.4410  102.4720 C.ar  215  TYR215     -0.0009
    124  CE1       50.7050   71.7640  102.7830 C.ar  215  TYR215      0.0417
    125  CE2       52.2670   73.3220  103.7210 C.ar  215  TYR215      0.0417
    126  CZ        51.1750   72.4800  103.8690 C.ar  215  TYR215      0.1957
    127  OH        50.5580   72.3580  105.0990 O.3   215  TYR215     -0.2866
    128  N         51.9410   68.9990   96.2890 N.3   219  ASP219     -0.1239
    129  CA        51.4150   69.5670   95.0490 C.3   219  ASP219      0.1674
    130  C         51.7060   68.6380   93.8630 C.2   219  ASP219      0.2266
    131  O         50.9080   68.5510   92.9270 O.2   219  ASP219     -0.2867
    132  CB        52.0300   70.9490   94.7850 C.3   219  ASP219      0.1410
    133  CG        51.3640   72.0580   95.5860 C.2   219  ASP219      0.3668
    134  OD1       50.5130   71.7460   96.4450 O.co2 219  ASP219     -0.2456
    135  OD2       51.6930   73.2420   95.3560 O.co2 219  ASP219     -0.2456
@<TRIPOS>BOND
     1    66    65    2
     2    65    64    1
     3    62    61    2
     4    64    67    1
     5    64    63    1
     6    75    74    1
     7    61    63   am
     8    61    60    1
     9    67    68    1
    10   131   130    2
    11    74    73    1
    12    74    76    1
    13    69    70    1
    14    73    70    1
    15    60    59    1
    16   130   129    1
    17    70    71    1
    18    16    15   ar
    19    16    14   ar
    20    15    13   ar
    21    14    12   ar
    22    13    11   ar
    23   132   129    1
    24   132   133    1
    25    71    72    2
    26    12    11   ar
    27    11    10    1
    28   129   128    1
    29   135   133   ar
    30    10     7    1
    31   133   134   ar
    32     5     2    1
    33     4     3    2
    34    93    94   ar
    35    93    91   ar
    36     3     2    1
    37     3     6   am
    38     7     6    1
    39     7     8    1
    40    94    92   ar
    41     2     1    1
    42    91    90   ar
    43   114   115   ar
    44   114   112   ar
    45   115   113   ar
    46    48    47    2
    47   119   118    2
    48    77    78    1
    49    92    90   ar
    50    90    89    1
    51     8     9    2
    52    47    46    1
    53    81    78    1
    54    81    82    1
    55   112   110   ar
    56   113   111   ar
    57    84    82    1
    58   118   117    1
    59    89    86    1
    60    78    79    1
    61    85    79   am
    62    85    86    1
    63    82    83    1
    64    46    45    1
    65    46    49    1
    66   110   111   ar
    67   110   109    1
    68    24    22    1
    69    79    80    2
    70    86    87    1
    71   117   120    1
    72   117   116    1
    73   120   121    1
    74    23    22    1
    75   109   106    1
    76    49    50    1
    77   108   107    2
    78    21    22    1
    79    21    18    1
    80    87    88    2
    81   107   106    1
    82    50    51   ar
    83    50    52   ar
    84    51    53   ar
    85   121   122   ar
    86   121   123   ar
    87   106   105    1
    88    17    18    1
    89   122   124   ar
    90   104   103    1
    91    18    19    1
    92    52    55   ar
    93    52    54   ar
    94    53    54   ar
    95   123   125   ar
    96    55    57   ar
    97    44    42    1
    98    54    56   ar
    99   124   126   ar
   100   103   100    1
   101    19    20    2
   102    19    25   am
   103    95    96    1
   104    98    97    2
   105   100    99    1
   106   100   101    1
   107    97    99   am
   108    97    96    1
   109    57    58   ar
   110    42    41    1
   111    56    58   ar
   112   125   126   ar
   113    36    33    1
   114    41    43    1
   115    41    38    1
   116   126   127    1
   117    25    31    1
   118    25    26    1
   119    28    27    2
   120    31    30    1
   121    40    39    2
   122    39    38    1
   123   101   102    2
   124    27    26    1
   125    27    32   am
   126    33    32    1
   127    33    34    1
   128    38    37    1
   129    26    29    1
   130    30    29    1
   131    34    35    2
