@<TRIPOS>MOLECULE
tmp/1pp9E01.pdb
 84 83 0 0 0
SMALL
GASTEIGER

@<TRIPOS>ATOM
      1  N         45.5360  119.6000   71.2970 N.3    46  GLY46      -0.1210
      2  CA        46.0830  118.9810   70.1030 C.3    46  GLY46       0.1956
      3  C         46.2230  117.4750   70.2420 C.2    46  GLY46       0.2611
      4  O         46.0110  116.7320   69.2830 O.2    46  GLY46      -0.2717
      5  N         46.5810  117.0190   71.4360 N.am   47  VAL47      -0.1979
      6  CA        46.7460  115.5950   71.6950 C.3    47  VAL47       0.1595
      7  C         45.3860  114.8980   71.7280 C.2    47  VAL47       0.2287
      8  O         45.2610  113.7650   71.2700 O.2    47  VAL47      -0.2864
      9  CB        47.5160  115.3630   73.0250 C.3    47  VAL47       0.0276
     10  CG1       47.5070  113.8890   73.4060 C.3    47  VAL47       0.0022
     11  CG2       48.9550  115.8360   72.8630 C.3    47  VAL47       0.0022
     12  N         42.7740  115.7870   70.0430 N.3    49  TYR49      -0.1227
     13  CA        42.3500  115.7240   68.6470 C.3    49  TYR49       0.1736
     14  C         42.9840  114.5130   67.9660 C.2    49  TYR49       0.2595
     15  O         42.3220  113.7920   67.2180 O.2    49  TYR49      -0.2718
     16  CB        42.7670  116.9980   67.9020 C.3    49  TYR49       0.0548
     17  CG        42.5740  116.8970   66.4070 C.ar   49  TYR49      -0.0200
     18  CD1       41.3170  117.0790   65.8250 C.ar   49  TYR49      -0.0009
     19  CD2       43.6430  116.5600   65.5750 C.ar   49  TYR49      -0.0009
     20  CE1       41.1340  116.9290   64.4530 C.ar   49  TYR49       0.0417
     21  CE2       43.4710  116.4040   64.2050 C.ar   49  TYR49       0.0417
     22  CZ        42.2150  116.5910   63.6510 C.ar   49  TYR49       0.1957
     23  OH        42.0380  116.4420   62.2950 O.3    49  TYR49      -0.2866
     24  N         44.2670  114.2980   68.2310 N.am   50  ALA50      -0.1966
     25  CA        44.9890  113.1740   67.6470 C.3    50  ALA50       0.1728
     26  C         44.5290  111.8370   68.2020 C.2    50  ALA50       0.2616
     27  O         44.2620  110.9070   67.4450 O.2    50  ALA50      -0.2715
     28  CB        46.4760  113.3340   67.8720 C.3    50  ALA50       0.0334
     29  N         44.4510  111.7320   69.5270 N.am   51  ALA51      -0.1963
     30  CA        44.0290  110.4980   70.1720 C.3    51  ALA51       0.1728
     31  C         42.6280  110.1080   69.7220 C.2    51  ALA51       0.2616
     32  O         42.3540  108.9340   69.4680 O.2    51  ALA51      -0.2715
     33  CB        44.0640  110.6630   71.6750 C.3    51  ALA51       0.0334
     34  N         41.7350  111.0930   69.6200 N.am   52  LYS52      -0.1963
     35  CA        40.3660  110.8180   69.1990 C.3    52  LYS52       0.1728
     36  C         40.3240  110.2000   67.8000 C.2    52  LYS52       0.2616
     37  O         39.6590  109.1890   67.5830 O.2    52  LYS52      -0.2715
     38  CB        39.5190  112.0950   69.2040 C.3    52  LYS52       0.0311
     39  CG        38.0730  111.8290   68.7970 C.3    52  LYS52       0.0038
     40  CD        37.3490  113.0870   68.3870 C.3    52  LYS52       0.0206
     41  CE        36.2280  112.7720   67.4160 C.3    52  LYS52       0.1093
     42  NZ        36.7230  112.1180   66.1810 N.3    52  LYS52      -0.1314
     43  N         41.0300  110.8090   66.8570 N.am   53  ASN53      -0.1958
     44  CA        41.0670  110.3130   65.4850 C.3    53  ASN53       0.1819
     45  C         41.6270  108.8910   65.4000 C.2    53  ASN53       0.2621
     46  O         41.0110  108.0020   64.8040 O.2    53  ASN53      -0.2715
     47  CB        41.9090  111.2560   64.6290 C.3    53  ASN53       0.1195
     48  CG        41.0890  112.3710   64.0110 C.2    53  ASN53       0.2630
     49  OD1       40.3890  112.1760   63.0170 O.2    53  ASN53      -0.2716
     50  ND2       41.1660  113.5430   64.6040 N.am   53  ASN53      -0.0877
     51  N         42.7990  108.6960   65.9980 N.am   54  VAL54      -0.1963
     52  CA        43.5010  107.4100   66.0410 C.3    54  VAL54       0.1727
     53  C         42.6460  106.2960   66.6270 C.2    54  VAL54       0.2616
     54  O         42.4670  105.2320   66.0260 O.2    54  VAL54      -0.2715
     55  CB        44.7700  107.5200   66.9100 C.3    54  VAL54       0.0290
     56  CG1       45.3170  106.1290   67.2370 C.3    54  VAL54       0.0023
     57  CG2       45.8070  108.3460   66.1960 C.3    54  VAL54       0.0023
     58  N         42.1610  106.5400   67.8370 N.am   55  VAL55      -0.1977
     59  CA        41.3310  105.5800   68.5380 C.3    55  VAL55       0.1596
     60  C         40.0940  105.2290   67.7270 C.2    55  VAL55       0.2287
     61  O         39.7590  104.0540   67.5660 O.2    55  VAL55      -0.2864
     62  CB        40.9240  106.1200   69.9220 C.3    55  VAL55       0.0276
     63  CG1       39.8470  105.2380   70.5360 C.3    55  VAL55       0.0022
     64  CG2       42.1520  106.1500   70.8250 C.3    55  VAL55       0.0022
     65  N         39.7420  105.3490   64.5800 N.3    57  GLN57      -0.1231
     66  CA        40.0940  104.6270   63.3600 C.3    57  GLN57       0.1698
     67  C         40.2570  103.1440   63.6770 C.2    57  GLN57       0.2592
     68  O         39.8300  102.2890   62.9000 O.2    57  GLN57      -0.2718
     69  CB        41.3760  105.1790   62.7320 C.3    57  GLN57       0.0381
     70  CG        41.1250  106.4510   61.9460 C.3    57  GLN57       0.0905
     71  CD        42.3970  107.1840   61.5330 C.2    57  GLN57       0.2608
     72  OE1       42.3630  108.3820   61.2530 O.2    57  GLN57      -0.2717
     73  NE2       43.5120  106.4660   61.4850 N.am   57  GLN57      -0.0878
     74  N         40.8560  102.8390   64.8230 N.am   58  PHE58      -0.1976
     75  CA        41.0410  101.4490   65.2250 C.3    58  PHE58       0.1639
     76  C         39.7020  100.8040   65.5460 C.2    58  PHE58       0.2290
     77  O         39.4150   99.6790   65.1210 O.2    58  PHE58      -0.2864
     78  CB        41.9650  101.3610   66.4390 C.3    58  PHE58       0.0560
     79  CG        43.4170  101.3580   66.0780 C.ar   58  PHE58      -0.0200
     80  CD1       43.9860  102.4780   65.4790 C.ar   58  PHE58      -0.0042
     81  CD2       44.2060  100.2230   66.2840 C.ar   58  PHE58      -0.0042
     82  CE1       45.3110  102.4780   65.0830 C.ar   58  PHE58      -0.0003
     83  CE2       45.5390  100.2050   65.8880 C.ar   58  PHE58      -0.0003
     84  CZ        46.0950  101.3400   65.2820 C.ar   58  PHE58      -0.0000
@<TRIPOS>BOND
     1    72    71    2
     2    73    71   am
     3    71    70    1
     4    70    69    1
     5    23    22    1
     6    69    66    1
     7    68    67    2
     8    49    48    2
     9    66    67    1
    10    66    65    1
    11    22    21   ar
    12    22    20   ar
    13    67    74   am
    14    48    50   am
    15    48    47    1
    16    21    19   ar
    17    20    18   ar
    18    47    44    1
    19    46    45    2
    20    74    75    1
    21    82    84   ar
    22    82    80   ar
    23    77    76    2
    24    75    76    1
    25    75    78    1
    26    84    83   ar
    27    45    44    1
    28    45    51   am
    29    80    79   ar
    30    44    43    1
    31    19    17   ar
    32    18    17   ar
    33    83    81   ar
    34    51    52    1
    35    54    53    2
    36    52    53    1
    37    52    55    1
    38    79    81   ar
    39    79    78    1
    40    42    41    1
    41    57    55    1
    42    17    16    1
    43    53    58   am
    44    43    36   am
    45    55    56    1
    46    15    14    2
    47    41    40    1
    48    27    26    2
    49    61    60    2
    50    37    36    2
    51    25    28    1
    52    25    26    1
    53    25    24    1
    54    60    59    1
    55    36    35    1
    56    58    59    1
    57    16    13    1
    58    14    24   am
    59    14    13    1
    60    26    29   am
    61    40    39    1
    62    59    62    1
    63    13    12    1
    64    39    38    1
    65    35    38    1
    66    35    34    1
    67     4     3    2
    68    32    31    2
    69    29    30    1
    70    34    31   am
    71    31    30    1
    72    62    63    1
    73    62    64    1
    74     2     3    1
    75     2     1    1
    76    30    33    1
    77     3     5   am
    78     8     7    2
    79     5     6    1
    80     6     7    1
    81     6     9    1
    82    11     9    1
    83     9    10    1
