@<TRIPOS>MOLECULE
tmp/1pp9M05.pdb
 105 96 0 0 0
SMALL
GASTEIGER

@<TRIPOS>ATOM
      1  N         43.8970   69.0760  101.3770 N.3    20  SER20      -0.1217
      2  CA        43.8680   68.8670   99.9370 C.3    20  SER20       0.1889
      3  C         43.0800   69.9510   99.2090 C.2    20  SER20       0.2288
      4  O         43.3180   70.2050   98.0280 O.2    20  SER20      -0.2866
      5  CB        43.2940   67.4790   99.6310 C.3    20  SER20       0.2089
      6  OG        44.1950   66.4580  100.0550 O.3    20  SER20      -0.2183
      7  N         45.0780   72.3670   97.3860 N.3    23  ASN23      -0.1225
      8  CA        45.8260   71.8990   96.2120 C.3    23  ASN23       0.1785
      9  C         45.3020   72.4790   94.8970 C.2    23  ASN23       0.2597
     10  O         46.0260   72.4990   93.9070 O.2    23  ASN23      -0.2718
     11  CB        45.7750   70.3650   96.0900 C.3    23  ASN23       0.1169
     12  CG        46.7990   69.6580   96.9590 C.2    23  ASN23       0.2627
     13  OD1       46.6260   69.5280   98.1670 O.2    23  ASN23      -0.2716
     14  ND2       47.8770   69.1940   96.3380 N.am   23  ASN23      -0.0877
     15  N         44.0590   72.9430   94.8770 N.am   24  PHE24      -0.1976
     16  CA        43.4720   73.4690   93.6510 C.3    24  PHE24       0.1639
     17  C         44.1030   74.7270   93.0530 C.2    24  PHE24       0.2290
     18  O         43.9610   74.9940   91.8640 O.2    24  PHE24      -0.2864
     19  CB        41.9550   73.6030   93.8370 C.3    24  PHE24       0.0560
     20  CG        41.2560   72.2820   93.9340 C.ar   24  PHE24      -0.0200
     21  CD1       41.0580   71.5090   92.7990 C.ar   24  PHE24      -0.0042
     22  CD2       40.9200   71.7380   95.1610 C.ar   24  PHE24      -0.0042
     23  CE1       40.5500   70.2250   92.8870 C.ar   24  PHE24      -0.0003
     24  CE2       40.4120   70.4500   95.2430 C.ar   24  PHE24      -0.0003
     25  CZ        40.2300   69.6990   94.1090 C.ar   24  PHE24      -0.0000
     26  N         46.7770   73.3560   91.0430 N.3    27  LEU27      -0.1245
     27  CA        46.1840   72.5750   89.9660 C.3    27  LEU27       0.1561
     28  C         45.6520   73.5170   88.9000 C.2    27  LEU27       0.2260
     29  O         45.6440   73.1630   87.7230 O.2    27  LEU27      -0.2867
     30  CB        45.0850   71.6500   90.4850 C.3    27  LEU27       0.0270
     31  CG        45.6090   70.4830   91.3270 C.3    27  LEU27       0.0019
     32  CD1       44.4820   69.5290   91.6410 C.3    27  LEU27       0.0001
     33  CD2       46.6970   69.7460   90.5720 C.3    27  LEU27       0.0001
     34  N         38.6280   70.1990   83.0330 N.3    80  MET80      -0.1245
     35  CA        39.3570   70.0470   84.2910 C.3    80  MET80       0.1570
     36  C         39.5520   71.4160   84.9230 C.2    80  MET80       0.2261
     37  O         39.4800   71.5610   86.1430 O.2    80  MET80      -0.2867
     38  CB        40.7190   69.3890   84.0610 C.3    80  MET80       0.0387
     39  CG        40.6570   67.9350   83.6190 C.3    80  MET80       0.0595
     40  SD        39.5180   66.9160   84.5670 S.3    80  MET80      -0.1393
     41  CE        40.1040   67.1550   86.2260 C.3    80  MET80       0.0692
     42  N         36.3650   72.2940   86.7510 N.3    83  ILE83      -0.1231
     43  CA        36.1820   71.4620   87.9330 C.3    83  ILE83       0.1692
     44  C         37.0500   72.0690   89.0480 C.2    83  ILE83       0.2592
     45  O         36.5840   72.2970   90.1700 O.2    83  ILE83      -0.2718
     46  CB        36.6260   69.9980   87.6730 C.3    83  ILE83       0.0266
     47  CG1       35.6070   69.2950   86.7690 C.3    83  ILE83       0.0019
     48  CG2       36.7540   69.2660   88.9900 C.3    83  ILE83       0.0020
     49  CD1       35.9870   67.9300   86.3270 C.3    83  ILE83       0.0001
     50  N         38.3030   72.3430   88.7260 N.am   84  CYS84      -0.1970
     51  CA        39.2170   72.9290   89.6970 C.3    84  CYS84       0.1712
     52  C         38.7670   74.3270   90.1210 C.2    84  CYS84       0.2296
     53  O         38.8430   74.6700   91.3010 O.2    84  CYS84      -0.2864
     54  CB        40.6360   72.9700   89.1350 C.3    84  CYS84       0.0983
     55  SG        41.3980   71.3570   88.8770 S.3    84  CYS84      -0.0798
     56  N         36.0000   73.9680   92.6050 N.3    87  MET87      -0.1245
     57  CA        36.4660   73.4200   93.8810 C.3    87  MET87       0.1570
     58  C         37.1930   74.5470   94.6260 C.2    87  MET87       0.2261
     59  O         37.0320   74.7010   95.8310 O.2    87  MET87      -0.2867
     60  CB        37.4630   72.2780   93.6590 C.3    87  MET87       0.0387
     61  CG        36.9280   71.0300   92.9550 C.3    87  MET87       0.0595
     62  SD        35.5930   70.1860   93.8250 S.3    87  MET87      -0.1393
     63  CE        34.2640   71.1220   93.1850 C.3    87  MET87       0.0692
     64  N         53.5110   67.5940   98.0690 N.3   218  LYS218     -0.1245
     65  CA        52.0720   67.4120   98.1410 C.3   218  LYS218      0.1561
     66  C         51.4140   67.9110   96.8440 C.2   218  LYS218      0.2260
     67  O         50.4610   67.3050   96.3550 O.2   218  LYS218     -0.2867
     68  CB        51.4990   68.1370   99.3610 C.3   218  LYS218      0.0271
     69  CG        50.1500   67.5910   99.7920 C.3   218  LYS218      0.0035
     70  CD        49.7020   68.1880  101.1110 C.3   218  LYS218      0.0206
     71  CE        48.2800   67.7870  101.3950 C.3   218  LYS218      0.1093
     72  NZ        47.6750   68.5880  102.4810 N.3   218  LYS218     -0.1314
     73  N         51.9060   65.4370   94.0830 N.3   221  LEU221     -0.1231
     74  CA        51.0040   64.3020   94.2290 C.3   221  LEU221      0.1693
     75  C         49.6620   64.7230   93.6750 C.2   221  LEU221      0.2592
     76  O         49.0010   63.9550   92.9740 O.2   221  LEU221     -0.2718
     77  CB        50.8740   63.8960   95.7010 C.3   221  LEU221      0.0284
     78  CG        49.9300   62.7300   96.0230 C.3   221  LEU221      0.0019
     79  CD1       50.3390   61.4960   95.2410 C.3   221  LEU221      0.0001
     80  CD2       49.9660   62.4360   97.5100 C.3   221  LEU221      0.0001
     81  N         49.2680   65.9560   93.9670 N.am  222  GLY222     -0.1957
     82  CA        48.0090   66.4610   93.4630 C.3   222  GLY222      0.1869
     83  C         48.0280   66.5640   91.9480 C.2   222  GLY222      0.2309
     84  O         47.0390   66.2470   91.2830 O.2   222  GLY222     -0.2863
     85  N         47.3350   63.2980   90.3550 N.3   225  LEU225     -0.1231
     86  CA        45.9320   62.9260   90.3800 C.3   225  LEU225      0.1693
     87  C         45.1560   63.7130   89.3180 C.2   225  LEU225      0.2591
     88  O         44.2310   63.1790   88.7080 O.2   225  LEU225     -0.2718
     89  CB        45.3500   63.1410   91.7810 C.3   225  LEU225      0.0284
     90  CG        45.9180   62.1610   92.8230 C.3   225  LEU225      0.0019
     91  CD1       45.5170   62.5950   94.2200 C.3   225  LEU225      0.0001
     92  CD2       45.4370   60.7450   92.5340 C.3   225  LEU225      0.0001
     93  N         45.5420   64.9680   89.0870 N.am  226  LEU226     -0.1980
     94  CA        44.8760   65.7860   88.0730 C.3   226  LEU226      0.1596
     95  C         45.1300   65.1720   86.7050 C.2   226  LEU226      0.2287
     96  O         44.2230   65.0720   85.8860 O.2   226  LEU226     -0.2864
     97  CB        45.4220   67.2210   88.0680 C.3   226  LEU226      0.0297
     98  CG        44.9120   68.1610   86.9600 C.3   226  LEU226      0.0022
     99  CD1       43.4260   68.3900   87.1380 C.3   226  LEU226      0.0001
    100  CD2       45.6550   69.4880   86.9810 C.3   226  LEU226      0.0001
    101  N         43.0140   62.0540   86.1570 N.3   229  ALA229     -0.1245
    102  CA        41.6310   62.4000   85.8330 C.3   229  ALA229      0.1562
    103  C         41.5290   62.8820   84.3890 C.2   229  ALA229      0.2260
    104  O         40.6020   62.5070   83.6700 O.2   229  ALA229     -0.2867
    105  CB        41.1070   63.4890   86.7850 C.3   229  ALA229      0.0290
@<TRIPOS>BOND
     1    34    35    1
     2    39    38    1
     3    39    40    1
     4   104   103    2
     5    38    35    1
     6    35    36    1
     7   103   102    1
     8    40    41    1
     9    36    37    2
    10   102   101    1
    11   102   105    1
    12    96    95    2
    13    49    47    1
    14    95    94    1
    15    42    43    1
    16    47    46    1
    17    98   100    1
    18    98    99    1
    19    98    97    1
    20    46    43    1
    21    46    48    1
    22    29    28    2
    23    43    44    1
    24    97    94    1
    25    94    93    1
    26    88    87    2
    27    50    44   am
    28    50    51    1
    29    55    54    1
    30    28    27    1
    31    44    45    2
    32    93    87   am
    33    54    51    1
    34    87    86    1
    35    51    52    1
    36    27    30    1
    37    27    26    1
    38    52    53    2
    39    85    86    1
    40    86    89    1
    41    30    31    1
    42    33    31    1
    43    84    83    2
    44    31    32    1
    45    89    90    1
    46    18    17    2
    47    83    82    1
    48    92    90    1
    49    56    57    1
    50    21    23   ar
    51    21    20   ar
    52    90    91    1
    53    23    25   ar
    54    61    60    1
    55    61    62    1
    56    76    75    2
    57    17    16    1
    58    63    62    1
    59    82    81    1
    60    16    19    1
    61    16    15    1
    62    60    57    1
    63    75    81   am
    64    75    74    1
    65    19    20    1
    66    57    58    1
    67    10     9    2
    68    20    22   ar
    69    73    74    1
    70    25    24   ar
    71    74    77    1
    72    58    59    2
    73    15     9   am
    74     9     8    1
    75    22    24   ar
    76    79    78    1
    77    77    78    1
    78    78    80    1
    79    11     8    1
    80    11    12    1
    81     8     7    1
    82    14    12   am
    83    67    66    2
    84    66    65    1
    85    12    13    2
    86     4     3    2
    87    64    65    1
    88    65    68    1
    89     3     2    1
    90    68    69    1
    91     5     2    1
    92     5     6    1
    93    69    70    1
    94     2     1    1
    95    70    71    1
    96    71    72    1
