@<TRIPOS>MOLECULE
tmp/1ppaA00.pdb
 113 108 0 0 0
SMALL
GASTEIGER

@<TRIPOS>ATOM
      1  N         44.0770   14.9070   15.6130 N.3     5  LEU5       -0.1245
      2  CA        44.0340   15.5720   16.8910 C.3     5  LEU5        0.1561
      3  C         43.7840   17.1240   16.7760 C.2     5  LEU5        0.2260
      4  O         43.0400   17.7610   17.5360 O.2     5  LEU5       -0.2867
      5  CB        45.3570   15.2720   17.5480 C.3     5  LEU5        0.0270
      6  CG        45.4640   16.0010   18.9070 C.3     5  LEU5        0.0019
      7  CD1       44.4560   15.8800   20.0240 C.3     5  LEU5        0.0001
      8  CD2       46.8160   15.8650   19.5110 C.3     5  LEU5        0.0001
      9  N         40.4360   19.0990   18.2790 N.3     9  ILE9       -0.1245
     10  CA        40.5360   20.2360   19.2010 C.3     9  ILE9        0.1561
     11  C         39.8710   21.4800   18.6420 C.2     9  ILE9        0.2260
     12  O         39.1700   22.2600   19.2930 O.2     9  ILE9       -0.2867
     13  CB        42.0170   20.5360   19.4080 C.3     9  ILE9        0.0252
     14  CG1       42.3890   19.5710   20.4850 C.3     9  ILE9        0.0019
     15  CG2       42.2670   21.9530   20.0640 C.3     9  ILE9        0.0019
     16  CD1       43.9050   19.5420   20.5600 C.3     9  ILE9        0.0001
     17  N         45.1850   24.3630   17.7490 N.3    17  ALA17      -0.1245
     18  CA        45.8220   23.4620   18.7570 C.3    17  ALA17       0.1562
     19  C         47.3030   23.9120   18.9870 C.2    17  ALA17       0.2260
     20  O         47.8180   23.8410   20.1160 O.2    17  ALA17      -0.2867
     21  CB        45.7860   22.0030   18.2450 C.3    17  ALA17       0.0290
     22  N         47.5460   25.4930   22.6440 N.3    21  TYR21      -0.1241
     23  CA        47.8820   24.3420   23.4970 C.3    21  TYR21       0.1605
     24  C         49.2270   23.6910   23.3010 C.2    21  TYR21       0.2264
     25  O         49.6920   22.8470   24.0840 O.2    21  TYR21      -0.2867
     26  CB        47.0100   23.1470   23.2890 C.3    21  TYR21       0.0534
     27  CG        45.6000   23.4550   23.7960 C.ar   21  TYR21      -0.0201
     28  CD1       45.3640   23.5830   25.1270 C.ar   21  TYR21      -0.0009
     29  CD2       44.6130   23.6190   22.8520 C.ar   21  TYR21      -0.0009
     30  CE1       44.1130   24.0050   25.5120 C.ar   21  TYR21       0.0417
     31  CE2       43.3610   24.0130   23.2720 C.ar   21  TYR21       0.0417
     32  CZ        43.1250   24.1910   24.6080 C.ar   21  TYR21       0.1957
     33  OH        41.8590   24.3920   25.0750 O.3    21  TYR21      -0.2866
     34  N         52.1880   19.8640   30.6490 N.3    27  ASN27      -0.1225
     35  CA        52.0170   18.6190   29.9120 C.3    27  ASN27       0.1785
     36  C         51.4660   18.7910   28.5010 C.2    27  ASN27       0.2597
     37  O         51.6730   17.8970   27.6890 O.2    27  ASN27      -0.2718
     38  CB        51.0150   17.8180   30.7010 C.3    27  ASN27       0.1169
     39  CG        51.6300   17.2600   31.9510 C.2    27  ASN27       0.2627
     40  OD1       52.0880   16.1160   31.9160 O.2    27  ASN27      -0.2716
     41  ND2       51.4090   17.9540   33.0340 N.am   27  ASN27      -0.0877
     42  N         50.8720   19.9000   28.1670 N.am   28  CYS28      -0.1970
     43  CA        50.1430   19.9710   26.8660 C.3    28  CYS28       0.1712
     44  C         51.1300   20.3150   25.8000 C.2    28  CYS28       0.2296
     45  O         51.0580   19.9500   24.6200 O.2    28  CYS28      -0.2864
     46  CB        49.2050   21.1090   26.7220 C.3    28  CYS28       0.0983
     47  SG        47.8390   20.9650   27.8740 S.3    28  CYS28      -0.0798
     48  N         53.9190   20.3070   23.6580 N.3    30  TRP30      -0.1241
     49  CA        54.7560   19.3920   22.8980 C.3    30  TRP30       0.1605
     50  C         56.1580   19.3350   23.5490 C.2    30  TRP30       0.2264
     51  O         56.8950   20.3360   23.7730 O.2    30  TRP30      -0.2867
     52  CB        54.7780   20.0210   21.4870 C.3    30  TRP30       0.0550
     53  CG        53.9340   19.2560   20.4620 C.ar   30  TRP30       0.0003
     54  CD1       54.2340   18.0110   20.0590 C.ar   30  TRP30       0.0946
     55  CD2       52.7610   19.6780   19.7480 C.ar   30  TRP30       0.0152
     56  NE1       53.2830   17.6390   19.0680 N.ar   30  TRP30      -0.2442
     57  CE2       52.4600   18.6340   18.8660 C.ar   30  TRP30       0.0810
     58  CE3       51.9310   20.7940   19.7300 C.ar   30  TRP30       0.0012
     59  CZ2       51.4230   18.6980   17.9280 C.ar   30  TRP30       0.0191
     60  CZ3       50.9010   20.8510   18.7630 C.ar   30  TRP30       0.0001
     61  CH2       50.6580   19.8500   17.8870 C.ar   30  TRP30       0.0015
     62  N         45.8290   17.2100   29.3770 N.3    44  CYS44      -0.1235
     63  CA        47.0600   16.8740   28.6800 C.3    44  CYS44       0.1677
     64  C         47.8960   15.7650   29.3080 C.2    44  CYS44       0.2270
     65  O         48.4540   14.9930   28.5360 O.2    44  CYS44      -0.2867
     66  CB        47.9180   18.1110   28.4030 C.3    44  CYS44       0.0956
     67  SG        46.9950   19.2060   27.2800 S.3    44  CYS44      -0.0801
     68  N         46.2160   12.5540   28.5880 N.3    47  HIS47      -0.1226
     69  CA        46.2940   12.2670   27.1650 C.3    47  HIS47       0.1752
     70  C         47.6180   11.5590   26.8770 C.2    47  HIS47       0.2595
     71  O         47.6180   10.5720   26.1570 O.2    47  HIS47      -0.2718
     72  CB        46.2080   13.5760   26.4050 C.3    47  HIS47       0.0759
     73  CG        46.2800   13.4050   24.8670 C.ar   47  HIS47       0.0818
     74  ND1       47.1950   14.0990   24.0780 N.ar   47  HIS47      -0.2268
     75  CD2       45.5860   12.6540   24.0040 C.ar   47  HIS47       0.1154
     76  CE1       46.9880   13.8550   22.8170 C.ar   47  HIS47       0.1986
     77  NE2       46.0150   12.9970   22.7650 N.ar   47  HIS47      -0.2212
     78  N         48.7120   12.0890   27.3380 N.am   48  LYS48      -0.1980
     79  CA        50.0140   11.3950   27.3210 C.3    48  LYS48       0.1596
     80  C         50.0210    9.9570   27.8040 C.2    48  LYS48       0.2287
     81  O         50.6580    9.1630   27.1130 O.2    48  LYS48      -0.2864
     82  CB        51.1650   12.0810   28.1440 C.3    48  LYS48       0.0298
     83  CG        51.5660   13.3050   27.2980 C.3    48  LYS48       0.0038
     84  CD        52.5670   14.2920   27.8510 C.3    48  LYS48       0.0206
     85  CE        52.7460   15.2430   26.6530 C.3    48  LYS48       0.1093
     86  NZ        53.7550   16.3020   26.7970 N.3    48  LYS48      -0.1314
     87  N         48.2610    7.8110   25.2590 N.3    51  TYR51      -0.1241
     88  CA        49.1910    7.4960   24.1710 C.3    51  TYR51       0.1605
     89  C         50.2640    6.4730   24.5160 C.2    51  TYR51       0.2264
     90  O         50.7650    5.7510   23.6580 O.2    51  TYR51      -0.2867
     91  CB        50.0570    8.7050   23.9520 C.3    51  TYR51       0.0534
     92  CG        49.3490    9.5640   23.0130 C.ar   51  TYR51      -0.0201
     93  CD1       48.1400    9.1340   22.4430 C.ar   51  TYR51      -0.0009
     94  CD2       49.9210   10.7870   22.7080 C.ar   51  TYR51      -0.0009
     95  CE1       47.5960    9.9280   21.4060 C.ar   51  TYR51       0.0417
     96  CE2       49.3840   11.5380   21.6600 C.ar   51  TYR51       0.0417
     97  CZ        48.2330   11.1160   20.9920 C.ar   51  TYR51       0.1957
     98  OH        47.7180   11.9030   19.9780 O.3    51  TYR51      -0.2866
     99  N         40.8290   13.9340   25.0460 N.3    92  VAL92      -0.1245
    100  CA        41.5300   15.1720   25.3860 C.3    92  VAL92       0.1561
    101  C         40.7360   16.3160   24.7690 C.2    92  VAL92       0.2260
    102  O         40.6150   17.3530   25.3800 O.2    92  VAL92      -0.2867
    103  CB        43.0400   15.1640   25.0110 C.3    92  VAL92       0.0252
    104  CG1       43.2830   15.3430   23.4850 C.3    92  VAL92       0.0019
    105  CG2       43.7330   16.2160   25.8180 C.3    92  VAL92       0.0019
    106  N         39.4340   19.1840   27.2290 N.3    96  LEU96      -0.1245
    107  CA        39.7850   20.5790   26.9290 C.3    96  LEU96       0.1561
    108  C         38.5760   21.4950   26.8430 C.2    96  LEU96       0.2260
    109  O         38.6050   22.6320   27.3150 O.2    96  LEU96      -0.2867
    110  CB        40.7720   20.7870   25.7430 C.3    96  LEU96       0.0270
    111  CG        42.1450   20.0280   26.0420 C.3    96  LEU96       0.0019
    112  CD1       42.9320   19.9350   24.7810 C.3    96  LEU96       0.0001
    113  CD2       43.1040   20.5930   27.1190 C.3    96  LEU96       0.0001
@<TRIPOS>BOND
     1     1     2    1
     2     3     2    1
     3     3     4    2
     4     2     5    1
     5     5     6    1
     6    17    18    1
     7    61    59   ar
     8    61    60   ar
     9    59    57   ar
    10    21    18    1
    11     9    10    1
    12    11    10    1
    13    11    12    2
    14    18    19    1
    15    60    58   ar
    16    57    56   ar
    17    57    55   ar
    18     6     8    1
    19     6     7    1
    20    19    20    2
    21    56    54   ar
    22    10    13    1
    23    13    15    1
    24    13    14    1
    25    58    55   ar
    26    55    53   ar
    27    98    97    1
    28    54    53   ar
    29    53    52    1
    30    14    16    1
    31    97    95   ar
    32    97    96   ar
    33    95    93   ar
    34    52    49    1
    35    96    94   ar
    36    93    92   ar
    37    22    23    1
    38    94    92   ar
    39    77    76   ar
    40    77    75   ar
    41    76    74   ar
    42    29    31   ar
    43    29    27   ar
    44    49    50    1
    45    49    48    1
    46    92    91    1
    47    31    32   ar
    48    26    23    1
    49    26    27    1
    50    24    23    1
    51    24    25    2
    52   104   103    1
    53    50    51    2
    54    90    89    2
    55    27    28   ar
    56    91    88    1
    57    75    73   ar
    58    74    73   ar
    59    88    89    1
    60    88    87    1
    61    32    33    1
    62    32    30   ar
    63    45    44    2
    64   101   102    2
    65   101   100    1
    66   112   111    1
    67    73    72    1
    68   103   100    1
    69   103   105    1
    70    99   100    1
    71    28    30   ar
    72   110   111    1
    73   110   107    1
    74    44    43    1
    75   111   113    1
    76    71    70    2
    77    72    69    1
    78    85    86    1
    79    85    84    1
    80    46    43    1
    81    46    47    1
    82   108   107    1
    83   108   109    2
    84    43    42    1
    85    70    69    1
    86    70    78   am
    87   107   106    1
    88    81    80    2
    89    69    68    1
    90    67    47    1
    91    67    66    1
    92    83    84    1
    93    83    82    1
    94    79    78    1
    95    79    80    1
    96    79    82    1
    97    37    36    2
    98    42    36   am
    99    66    63    1
   100    36    35    1
   101    65    64    2
   102    63    64    1
   103    63    62    1
   104    35    34    1
   105    35    38    1
   106    38    39    1
   107    40    39    2
   108    39    41   am
