@<TRIPOS>MOLECULE
tmp/1ppcA00.pdb
 169 168 0 0 0
SMALL
GASTEIGER

@<TRIPOS>ATOM
      1  N          7.3710    2.4240   24.0480 N.3    40  HIS40      -0.1241
      2  CA         6.3070    1.4380   23.9990 C.3    40  HIS40       0.1621
      3  C          6.3570    0.6540   22.6860 C.2    40  HIS40       0.2264
      4  O          5.5900   -0.2920   22.5380 O.2    40  HIS40      -0.2867
      5  CB         4.9150    2.0570   24.2190 C.3    40  HIS40       0.0745
      6  CG         4.3140    2.9160   23.0950 C.ar   40  HIS40       0.0817
      7  ND1        4.1520    4.2310   23.1030 N.ar   40  HIS40      -0.2268
      8  CD2        3.6970    2.4330   21.9520 C.ar   40  HIS40       0.1154
      9  CE1        3.4800    4.5640   22.0390 C.ar   40  HIS40       0.1986
     10  NE2        3.2100    3.4870   21.3630 N.ar   40  HIS40      -0.2212
     11  N          6.0190    2.4540   32.0820 N.3    78  SER78      -0.1202
     12  CA         4.9530    1.9780   31.2100 C.3    78  SER78       0.2020
     13  C          3.5550    2.3120   31.6940 C.2    78  SER78       0.2619
     14  O          2.5840    2.2200   30.9450 O.2    78  SER78      -0.2717
     15  CB         5.0830    0.4830   31.0270 C.3    78  SER78       0.2103
     16  OG         5.4450   -0.1130   32.2690 O.3    78  SER78      -0.2182
     17  N          3.4140    2.7200   32.9460 N.am   79  ASN79      -0.1960
     18  CA         2.0950    3.0420   33.4330 C.3    79  ASN79       0.1819
     19  C          1.6870    4.4560   33.1450 C.2    79  ASN79       0.2622
     20  O          0.5040    4.7010   32.9280 O.2    79  ASN79      -0.2715
     21  CB         1.9670    2.7470   34.9190 C.3    79  ASN79       0.1195
     22  CG         2.0030    1.2370   35.1660 C.2    79  ASN79       0.2630
     23  OD1        2.5980    0.7550   36.1230 O.2    79  ASN79      -0.2716
     24  ND2        1.4380    0.3570   34.3420 N.am   79  ASN79      -0.0877
     25  N          2.6480    5.3830   33.1650 N.am   80  THR80      -0.1937
     26  CA         2.3640    6.7910   32.9220 C.3    80  THR80       0.2028
     27  C          2.7300    7.2440   31.5120 C.2    80  THR80       0.2642
     28  O          2.2970    8.3070   31.0530 O.2    80  THR80      -0.2714
     29  CB         3.1220    7.6940   33.9370 C.3    80  THR80       0.1808
     30  OG1        4.5020    7.4630   33.7280 O.3    80  THR80      -0.2208
     31  CG2        2.8550    7.3260   35.3880 C.3    80  THR80       0.0379
     32  N          3.6230    6.4630   30.8760 N.am   81  LEU81      -0.1977
     33  CA         4.2360    6.7520   29.5870 C.3    81  LEU81       0.1596
     34  C          5.2050    7.9200   29.6560 C.2    81  LEU81       0.2287
     35  O          5.6750    8.4770   28.6600 O.2    81  LEU81      -0.2864
     36  CB         3.2120    6.8810   28.4510 C.3    81  LEU81       0.0297
     37  CG         2.4300    5.6010   28.1150 C.3    81  LEU81       0.0022
     38  CD1        1.5240    5.8560   26.9460 C.3    81  LEU81       0.0001
     39  CD2        3.3430    4.4450   27.7240 C.3    81  LEU81       0.0001
     40  N         -2.3400   13.7670   34.1040 N.3   155  GLN155     -0.1245
     41  CA        -1.6320   12.7940   33.3030 C.3   155  GLN155      0.1566
     42  C         -0.5360   13.3800   32.4500 C.2   155  GLN155      0.2260
     43  O          0.1470   12.6320   31.7470 O.2   155  GLN155     -0.2867
     44  CB        -2.6030   12.1320   32.3880 C.3   155  GLN155      0.0367
     45  CG        -3.7480   11.4410   33.0830 C.3   155  GLN155      0.0905
     46  CD        -4.7660   10.9650   32.0650 C.2   155  GLN155      0.2608
     47  OE1       -5.8670   11.4960   31.9320 O.2   155  GLN155     -0.2717
     48  NE2       -4.4390    9.9650   31.2600 N.am  155  GLN155     -0.0878
     49  N         -6.2810   13.4580   13.9430 N.3   171  ASP171     -0.1225
     50  CA        -5.3780   13.0300   15.0070 C.3   171  ASP171      0.1805
     51  C         -4.4650   11.9170   14.5260 C.2   171  ASP171      0.2598
     52  O         -4.6630   11.4060   13.4220 O.2   171  ASP171     -0.2718
     53  CB        -6.2080   12.4560   16.1430 C.3   171  ASP171      0.1424
     54  CG        -5.5890   12.3930   17.5290 C.2   171  ASP171      0.3668
     55  OD1       -4.4440   12.7970   17.7180 O.co2 171  ASP171     -0.2456
     56  OD2       -6.2680   11.9290   18.4450 O.co2 171  ASP171     -0.2456
     57  N         -3.4260   11.5720   15.2820 N.am  172  SER172     -0.1938
     58  CA        -2.6710   10.3550   15.0250 C.3   172  SER172      0.2055
     59  C         -3.4870    9.2620   15.7170 C.2   172  SER172      0.2643
     60  O         -4.4150    9.5400   16.4990 O.2   172  SER172     -0.2714
     61  CB        -1.2310   10.4450   15.5670 C.3   172  SER172      0.2130
     62  OG        -1.1550   10.9180   16.9170 O.3   172  SER172     -0.2179
     63  N         -3.1420    8.0030   15.5210 N.am  173  CYS173     -0.1953
     64  CA        -3.9370    6.9190   16.0640 C.3   173  CYS173      0.1843
     65  C         -3.0480    5.6780   16.1890 C.2   173  CYS173      0.2625
     66  O         -1.8520    5.7300   15.8670 O.2   173  CYS173     -0.2714
     67  CB        -5.1240    6.7260   15.0830 C.3   173  CYS173      0.0997
     68  SG        -6.4960    5.7170   15.7270 S.3   173  CYS173     -0.0797
     69  N         -3.5930    4.5460   16.6500 N.am  174  GLN174     -0.1977
     70  CA        -2.9020    3.2610   16.7480 C.3   174  GLN174      0.1601
     71  C         -2.1790    2.9410   15.4240 C.2   174  GLN174      0.2287
     72  O         -2.7190    3.1220   14.3210 O.2   174  GLN174     -0.2864
     73  CB        -3.9350    2.1740   17.1330 C.3   174  GLN174      0.0394
     74  CG        -5.1340    2.1810   16.1750 C.3   174  GLN174      0.0908
     75  CD        -6.5220    1.6470   16.5620 C.2   174  GLN174      0.2608
     76  OE1       -6.9610    0.6260   16.0420 O.2   174  GLN174     -0.2717
     77  NE2       -7.3870    2.3060   17.3320 N.am  174  GLN174     -0.0878
     78  N          2.1920    5.3290   16.4910 N.3   177  SER177     -0.1217
     79  CA         3.1220    5.3020   17.6250 C.3   177  SER177      0.1889
     80  C          4.5850    5.3260   17.2420 C.2   177  SER177      0.2288
     81  O          4.9770    4.6150   16.3140 O.2   177  SER177     -0.2866
     82  CB         2.9620    4.0100   18.4460 C.3   177  SER177      0.2089
     83  OG         1.6570    3.9680   18.9650 O.3   177  SER177     -0.2183
     84  N          5.0350   10.3580   18.4540 N.3   191  VAL191     -0.1231
     85  CA         3.6560    9.9440   18.7180 C.3   191  VAL191      0.1692
     86  C          3.6190    9.0070   19.9340 C.2   191  VAL191      0.2593
     87  O          4.2150    7.9270   19.8820 O.2   191  VAL191     -0.2718
     88  CB         3.0980    9.2500   17.4730 C.3   191  VAL191      0.0266
     89  CG1        1.6460    8.8160   17.7620 C.3   191  VAL191      0.0020
     90  CG2        3.1220   10.1720   16.2440 C.3   191  VAL191      0.0020
     91  N          2.9830    9.3700   21.0440 N.am  192  SER192     -0.1938
     92  CA         2.9690    8.5190   22.2250 C.3   192  SER192      0.2055
     93  C          1.5830    7.9740   22.5940 C.2   192  SER192      0.2643
     94  O          1.3740    6.7570   22.4620 O.2   192  SER192     -0.2714
     95  CB         3.5650    9.3160   23.3420 C.3   192  SER192      0.2130
     96  OG         3.6710    8.6670   24.5960 O.3   192  SER192     -0.2179
     97  N          0.5790    8.7710   23.0060 N.am  193  TRP193     -0.1959
     98  CA        -0.7000    8.2440   23.4500 C.3   193  TRP193      0.1771
     99  C         -1.8230    9.2300   23.2460 C.2   193  TRP193      0.2620
    100  O         -1.6110   10.3380   22.7750 O.2   193  TRP193     -0.2715
    101  CB        -0.6850    7.8780   24.9220 C.3   193  TRP193      0.0590
    102  CG        -0.4390    8.9990   25.9210 C.ar  193  TRP193      0.0006
    103  CD1        0.8260    9.4030   26.2630 C.ar  193  TRP193      0.0946
    104  CD2       -1.4040    9.5780   26.7080 C.ar  193  TRP193      0.0152
    105  NE1        0.6660   10.2330   27.2750 N.ar  193  TRP193     -0.2442
    106  CE2       -0.6500   10.3740   27.5590 C.ar  193  TRP193      0.0810
    107  CE3       -2.7850    9.5500   26.7850 C.ar  193  TRP193      0.0012
    108  CZ2       -1.2700   11.1310   28.5460 C.ar  193  TRP193      0.0191
    109  CZ3       -3.4040   10.3070   27.7680 C.ar  193  TRP193      0.0001
    110  CH2       -2.6550   11.0960   28.6240 C.ar  193  TRP193      0.0015
    111  N         -3.0430    8.8440   23.5260 N.am  194  GLY194     -0.1940
    112  CA        -4.1830    9.7270   23.4280 C.3   194  GLY194      0.2014
    113  C         -5.3840    8.9550   23.9170 C.2   194  GLY194      0.2640
    114  O         -5.2400    7.7650   24.1790 O.2   194  GLY194     -0.2714
    115  N         -6.5560    9.5420   24.0790 N.am  195  SER195     -0.1935
    116  CA        -7.7060    8.7980   24.5270 C.3   195  SER195      0.2055
    117  C         -8.5130    8.6010   23.2590 C.2   195  SER195      0.2644
    118  O         -9.0810    9.5500   22.6980 O.2   195  SER195     -0.2714
    119  CB        -8.4070    9.6610   25.5170 C.3   195  SER195      0.2130
    120  OG        -9.2340    8.8870   26.3390 O.3   195  SER195     -0.2179
    121  N         -8.4840    7.3890   22.7270 N.am  196  GLY196     -0.1939
    122  CA        -9.1520    7.1040   21.4750 C.3   196  GLY196      0.2014
    123  C         -8.3360    7.7510   20.3610 C.2   196  GLY196      0.2639
    124  O         -7.1260    8.0000   20.5070 O.2   196  GLY196     -0.2714
    125  N         -9.0120    8.0470   19.2640 N.am  197  CYS197     -0.1967
    126  CA        -8.4290    8.7520   18.1440 C.3   197  CYS197      0.1712
    127  C         -9.4360    9.7420   17.5960 C.2   197  CYS197      0.2296
    128  O        -10.6000    9.4290   17.3060 O.2   197  CYS197     -0.2864
    129  CB        -8.0740    7.8190   17.0160 C.3   197  CYS197      0.0983
    130  SG        -6.9150    6.5220   17.5230 S.3   197  CYS197     -0.0798
    131  N         -9.9650   15.5410   23.2350 N.3   202  LYS202     -0.1231
    132  CA        -8.9360   14.6020   23.6590 C.3   202  LYS202      0.1678
    133  C         -7.8770   14.6170   22.5630 C.2   202  LYS202      0.2434
    134  O         -7.8940   13.7760   21.6430 O.2   202  LYS202     -0.2733
    135  CB        -9.5310   13.1970   23.8120 C.3   202  LYS202      0.0284
    136  CG       -10.6240   13.0620   24.8650 C.3   202  LYS202      0.0035
    137  CD        -9.9970   13.3410   26.2280 C.3   202  LYS202      0.0206
    138  CE       -11.0530   13.5670   27.3130 C.3   202  LYS202      0.1093
    139  NZ       -10.4150   13.7530   28.6060 N.3   202  LYS202     -0.1314
    140  N         -7.0040   15.6290   22.5390 N.am  203  PRO203     -0.2718
    141  CA        -5.9460   15.7160   21.5310 C.3   203  PRO203      0.1535
    142  C         -4.8570   14.6530   21.7140 C.2   203  PRO203      0.2599
    143  O         -4.7900   13.9810   22.7450 O.2   203  PRO203     -0.2715
    144  CB        -5.4630   17.1300   21.7590 C.3   203  PRO203      0.0310
    145  CG        -5.6130   17.3370   23.2540 C.3   203  PRO203      0.0237
    146  CD        -6.9660   16.7430   23.4820 C.3   203  PRO203      0.0939
    147  N         -3.9620   14.5060   20.7440 N.am  204  GLY204     -0.1941
    148  CA        -2.8880   13.5460   20.9050 C.3   204  GLY204      0.2014
    149  C         -1.8340   14.0750   21.8730 C.2   204  GLY204      0.2639
    150  O         -1.6520   15.2940   21.9770 O.2   204  GLY204     -0.2714
    151  N         -1.1050   13.1560   22.5180 N.am  205  VAL205     -0.1963
    152  CA        -0.0300   13.4400   23.4420 C.3   205  VAL205      0.1727
    153  C          1.2600   12.8500   22.8760 C.2   205  VAL205      0.2616
    154  O          1.3290   11.7510   22.2950 O.2   205  VAL205     -0.2715
    155  CB        -0.3090   12.9080   24.8370 C.3   205  VAL205      0.0290
    156  CG1        0.7270   13.4190   25.8210 C.3   205  VAL205      0.0023
    157  CG2       -1.7000   13.3420   25.2860 C.3   205  VAL205      0.0023
    158  N          2.2950   13.6820   22.9480 N.am  206  TYR206     -0.1974
    159  CA         3.5560   13.4460   22.3180 C.3   206  TYR206      0.1639
    160  C          4.7030   13.6360   23.2850 C.2   206  TYR206      0.2290
    161  O          4.6510   14.4740   24.1950 O.2   206  TYR206     -0.2864
    162  CB         3.6910   14.4180   21.1500 C.3   206  TYR206      0.0560
    163  CG         2.5760   14.2360   20.1430 C.ar  206  TYR206     -0.0198
    164  CD1        1.3810   14.9210   20.2830 C.ar  206  TYR206     -0.0009
    165  CD2        2.7320   13.3390   19.0960 C.ar  206  TYR206     -0.0009
    166  CE1        0.3440   14.7030   19.3930 C.ar  206  TYR206      0.0417
    167  CE2        1.6970   13.1280   18.2000 C.ar  206  TYR206      0.0417
    168  CZ         0.5090   13.8080   18.3580 C.ar  206  TYR206      0.1957
    169  OH        -0.5490   13.5410   17.5150 O.3   206  TYR206     -0.2866
@<TRIPOS>BOND
     1    52    51    2
     2    49    50    1
     3    72    71    2
     4    51    50    1
     5    51    57   am
     6    50    53    1
     7    58    57    1
     8    58    61    1
     9    58    59    1
    10    67    68    1
    11    67    64    1
    12    71    70    1
    13    63    59   am
    14    63    64    1
    15    61    62    1
    16    59    60    2
    17    68   130    1
    18    66    65    2
    19    76    75    2
    20    64    65    1
    21    53    54    1
    22    74    75    1
    23    74    73    1
    24    65    69   am
    25    90    88    1
    26    81    80    2
    27    78    79    1
    28    75    77   am
    29    69    70    1
    30    70    73    1
    31   129   130    1
    32   129   126    1
    33    80    79    1
    34   128   127    2
    35    88    89    1
    36    88    85    1
    37   169   168    1
    38    54    55   ar
    39    54    56   ar
    40   127   126    1
    41    79    82    1
    42   126   125    1
    43   167   168   ar
    44   167   165   ar
    45   168   166   ar
    46    82    83    1
    47    84    85    1
    48    85    86    1
    49   165   163   ar
    50   125   123   am
    51   166   164   ar
    52    87    86    2
    53    86    91   am
    54   163   164   ar
    55   163   162    1
    56   123   124    2
    57   123   122    1
    58   147   148    1
    59   147   142   am
    60   148   149    1
    61    91    92    1
    62   162   159    1
    63    10     8   ar
    64    10     9   ar
    65   122   121    1
    66   141   142    1
    67   141   144    1
    68   141   140    1
    69   134   133    2
    70   142   143    2
    71   144   145    1
    72   149   150    2
    73   149   151   am
    74     8     6   ar
    75     9     7   ar
    76    92    93    1
    77    92    95    1
    78   154   153    2
    79   159   158    1
    80   159   160    1
    81    94    93    2
    82   151   152    1
    83     4     3    2
    84   140   133   am
    85   140   146    1
    86   133   132    1
    87    93    97   am
    88     3     2    1
    89   118   117    2
    90   121   117   am
    91   100    99    2
    92   153   158   am
    93   153   152    1
    94    97    98    1
    95     6     7   ar
    96     6     5    1
    97   131   132    1
    98    99    98    1
    99    99   111   am
   100   145   146    1
   101   117   116    1
   102   160   161    2
   103    95    96    1
   104   112   111    1
   105   112   113    1
   106   152   155    1
   107    98   101    1
   108   132   135    1
   109   135   136    1
   110   113   115   am
   111   113   114    2
   112     2     1    1
   113     2     5    1
   114   115   116    1
   115   116   119    1
   116   155   157    1
   117   155   156    1
   118   136   137    1
   119   101   102    1
   120   119   120    1
   121   102   103   ar
   122   102   104   ar
   123   137   138    1
   124   103   105   ar
   125   104   107   ar
   126   104   106   ar
   127   107   109   ar
   128    38    37    1
   129   105   106   ar
   130   138   139    1
   131   106   108   ar
   132    39    37    1
   133   109   110   ar
   134    37    36    1
   135    36    33    1
   136   108   110   ar
   137    35    34    2
   138    33    34    1
   139    33    32    1
   140    32    27   am
   141    14    13    2
   142    15    12    1
   143    15    16    1
   144    28    27    2
   145    12    13    1
   146    12    11    1
   147    48    46   am
   148    27    26    1
   149    13    17   am
   150    43    42    2
   151    47    46    2
   152    46    45    1
   153    44    45    1
   154    44    41    1
   155    42    41    1
   156    26    25    1
   157    26    29    1
   158    20    19    2
   159    17    18    1
   160    19    25   am
   161    19    18    1
   162    41    40    1
   163    18    21    1
   164    30    29    1
   165    29    31    1
   166    24    22   am
   167    21    22    1
   168    22    23    2
