@<TRIPOS>MOLECULE
tmp/1ppgA01.pdb
 81 79 0 0 0
SMALL
GASTEIGER

@<TRIPOS>ATOM
      1  N        -16.0780   32.6840   15.0830 N.3     5  ARG5       -0.1245
      2  CA       -16.1200   31.7790   16.2600 C.3     5  ARG5        0.1563
      3  C        -16.1010   30.3520   15.7320 C.2     5  ARG5        0.2260
      4  O        -16.2320   30.1210   14.5420 O.2     5  ARG5       -0.2867
      5  CB       -17.4400   31.9530   16.9940 C.3     5  ARG5        0.0307
      6  CG       -18.6560   31.7030   16.0790 C.3     5  ARG5        0.0489
      7  CD       -19.9950   32.0830   16.7440 C.3     5  ARG5        0.2205
      8  NE       -20.9780   31.8770   15.6820 N.pl3   5  ARG5       -0.0865
      9  CZ       -21.5530   32.8840   15.0270 C.cat   5  ARG5        0.5346
     10  NH1      -21.3010   34.1000   15.4280 N.pl3   5  ARG5        0.1354
     11  NH2      -22.3430   32.7020   13.9800 N.pl3   5  ARG5        0.1354
     12  N        -21.8680   22.3450    9.5250 N.3    12  TRP12      -0.1241
     13  CA       -22.0220   22.6320    8.0830 C.3    12  TRP12       0.1605
     14  C        -21.4210   21.5300    7.2920 C.2    12  TRP12       0.2264
     15  O        -20.3310   21.7660    6.7730 O.2    12  TRP12      -0.2867
     16  CB       -21.1730   23.8800    7.6610 C.3    12  TRP12       0.0550
     17  CG       -21.5250   25.0380    8.6380 C.ar   12  TRP12       0.0003
     18  CD1      -20.7800   25.5660    9.6360 C.ar   12  TRP12       0.0946
     19  CD2      -22.8020   25.6110    8.7760 C.ar   12  TRP12       0.0152
     20  NE1      -21.5730   26.4770   10.4210 N.ar   12  TRP12      -0.2442
     21  CE2      -22.7670   26.4660    9.9220 C.ar   12  TRP12       0.0810
     22  CE3      -23.9700   25.4380    8.0240 C.ar   12  TRP12       0.0012
     23  CZ2      -23.9040   27.1330   10.3740 C.ar   12  TRP12       0.0191
     24  CZ3      -25.0930   26.1150    8.5040 C.ar   12  TRP12       0.0001
     25  CH2      -25.0630   26.9240    9.6460 C.ar   12  TRP12       0.0015
     26  N        -27.7540   39.2390    5.4220 N.3   121  GLN121     -0.1231
     27  CA       -27.0430   38.6850    6.5820 C.3   121  GLN121      0.1698
     28  C        -26.5430   37.3340    6.1150 C.2   121  GLN121      0.2592
     29  O        -27.3710   36.5620    5.7210 O.2   121  GLN121     -0.2718
     30  CB       -27.9690   38.4800    7.7970 C.3   121  GLN121      0.0381
     31  CG       -28.4430   39.7970    8.3720 C.3   121  GLN121      0.0905
     32  CD       -27.2510   40.5450    8.9340 C.2   121  GLN121      0.2608
     33  OE1      -26.7850   41.5040    8.3170 O.2   121  GLN121     -0.2717
     34  NE2      -26.7760   40.1330   10.1090 N.am  121  GLN121     -0.0878
     35  N        -25.2690   37.0050    6.1320 N.am  122  CYS122     -0.1956
     36  CA       -24.8280   35.6830    5.6840 C.3   122  CYS122      0.1843
     37  C        -23.7730   35.1390    6.6130 C.2   122  CYS122      0.2625
     38  O        -23.4060   35.7430    7.6020 O.2   122  CYS122     -0.2714
     39  CB       -24.2120   35.7810    4.2840 C.3   122  CYS122      0.0997
     40  SG       -25.2090   36.4410    2.9170 S.3   122  CYS122     -0.0797
     41  N        -23.2880   33.9710    6.2950 N.am  123  LEU123     -0.1977
     42  CA       -22.3300   33.2610    7.1850 C.3   123  LEU123      0.1596
     43  C        -21.1040   32.8570    6.3540 C.2   123  LEU123      0.2287
     44  O        -21.2490   32.2510    5.2950 O.2   123  LEU123     -0.2864
     45  CB       -23.0010   31.9790    7.7160 C.3   123  LEU123      0.0297
     46  CG       -22.3510   31.6780    9.0740 C.3   123  LEU123      0.0022
     47  CD1      -22.5410   32.7780   10.1270 C.3   123  LEU123      0.0001
     48  CD2      -22.6020   30.2780    9.6310 C.3   123  LEU123      0.0001
     49  N        -20.4170   35.9460   11.0370 N.3   144  ASN144     -0.1240
     50  CA       -21.6170   36.6240   10.5500 C.3   144  ASN144      0.1653
     51  C        -21.2840   37.8450    9.6770 C.2   144  ASN144      0.2266
     52  O        -20.4780   38.6610   10.0920 O.2   144  ASN144     -0.2867
     53  CB       -22.4300   37.0800   11.7740 C.3   144  ASN144      0.1155
     54  CG       -23.2990   35.9370   12.3340 C.2   144  ASN144      0.2627
     55  OD1      -22.7980   35.0590   13.0590 O.2   144  ASN144     -0.2716
     56  ND2      -24.6330   36.0920   12.1070 N.am  144  ASN144     -0.0877
     57  N        -22.7030   31.3610    2.7060 N.3   178  VAL178     -0.1231
     58  CA       -24.0190   30.8040    2.7950 C.3   178  VAL178      0.1692
     59  C        -24.9160   31.8900    3.3440 C.2   178  VAL178      0.2592
     60  O        -24.7610   32.3140    4.4910 O.2   178  VAL178     -0.2718
     61  CB       -24.0900   29.4060    3.5200 C.3   178  VAL178      0.0266
     62  CG1      -22.7890   28.8890    4.1150 C.3   178  VAL178      0.0020
     63  CG2      -25.4030   29.0920    4.2870 C.3   178  VAL178      0.0020
     64  N        -25.7930   32.2430    2.4340 N.am  179  CYS179     -0.1956
     65  CA       -26.8410   33.2160    2.6860 C.3   179  CYS179      0.1843
     66  C        -28.2560   32.6180    2.6250 C.2   179  CYS179      0.2625
     67  O        -28.6460   32.1070    1.5690 O.2   179  CYS179     -0.2714
     68  CB       -26.7570   34.2020    1.5350 C.3   179  CYS179      0.0997
     69  SG       -25.2590   35.1550    1.2960 S.3   179  CYS179     -0.0797
     70  N        -29.0120   32.7750    3.6600 N.am  180  ASN180     -0.1958
     71  CA       -30.3860   32.2250    3.5820 C.3   180  ASN180      0.1819
     72  C        -30.4130   30.7430    3.1400 C.2   180  ASN180      0.2621
     73  O        -31.3970   30.3160    2.5310 O.2   180  ASN180     -0.2715
     74  CB       -31.4090   33.0230    2.6820 C.3   180  ASN180      0.1195
     75  CG       -31.5080   34.5110    3.0130 C.2   180  ASN180      0.2630
     76  OD1      -31.8920   34.8780    4.1380 O.2   180  ASN180     -0.2716
     77  ND2      -31.1320   35.2980    1.9560 N.am  180  ASN180     -0.0877
     78  N        -29.4350   29.9760    3.5470 N.am  181  GLY181     -0.1954
     79  CA       -29.5720   28.5500    3.4010 C.3   181  GLY181      0.1869
     80  C        -28.9590   28.2660    2.0350 C.2   181  GLY181      0.2309
     81  O        -28.6910   27.1430    1.6230 O.2   181  GLY181     -0.2863
@<TRIPOS>BOND
     1    69    68    1
     2    69    40    1
     3    68    65    1
     4    67    66    2
     5    81    80    2
     6    77    75   am
     7    80    79    1
     8    64    65    1
     9    64    59   am
    10    73    72    2
    11    66    65    1
    12    66    70   am
    13    74    75    1
    14    74    71    1
    15    57    58    1
    16    58    59    1
    17    58    61    1
    18    40    39    1
    19    75    76    2
    20    72    78   am
    21    72    71    1
    22    59    60    2
    23    79    78    1
    24    61    62    1
    25    61    63    1
    26    71    70    1
    27    39    36    1
    28    44    43    2
    29    26    27    1
    30    36    35    1
    31    36    37    1
    32    29    28    2
    33    28    35   am
    34    28    27    1
    35    41    37   am
    36    41    42    1
    37    43    42    1
    38    27    30    1
    39    37    38    2
    40    15    14    2
    41    42    45    1
    42    14    13    1
    43    16    13    1
    44    16    17    1
    45    45    46    1
    46    30    31    1
    47    22    24   ar
    48    22    19   ar
    49    13    12    1
    50    33    32    2
    51    31    32    1
    52    24    25   ar
    53    17    19   ar
    54    17    18   ar
    55    19    21   ar
    56    32    34   am
    57    46    48    1
    58    46    47    1
    59    18    20   ar
    60    25    23   ar
    61    51    52    2
    62    51    50    1
    63    21    23   ar
    64    21    20   ar
    65    50    49    1
    66    50    53    1
    67    53    54    1
    68    56    54   am
    69    54    55    2
    70    11     9    1
    71     4     3    2
    72     9    10    1
    73     9     8    2
    74     1     2    1
    75     8     7    1
    76     3     2    1
    77     6     7    1
    78     6     5    1
    79     2     5    1
