@<TRIPOS>MOLECULE
tmp/1ppgA02.pdb
 150 147 0 0 0
SMALL
GASTEIGER

@<TRIPOS>ATOM
      1  N         -6.3540   19.8930    0.5950 N.3    19  GLN19      -0.1245
      2  CA        -5.0870   19.6940    1.3300 C.3    19  GLN19       0.1566
      3  C         -4.0220   19.0760    0.4360 C.2    19  GLN19       0.2260
      4  O         -4.3570   18.3450   -0.5070 O.2    19  GLN19      -0.2867
      5  CB        -5.2660   18.8470    2.5700 C.3    19  GLN19       0.0367
      6  CG        -6.4000   19.2750    3.5280 C.3    19  GLN19       0.0905
      7  CD        -6.4200   18.3940    4.7800 C.2    19  GLN19       0.2608
      8  OE1       -5.7100   17.3600    4.9110 O.2    19  GLN19      -0.2717
      9  NE2       -7.2980   18.7940    5.6910 N.am   19  GLN19      -0.0878
     10  N         -2.9920   16.3850   -8.9140 N.3    49  ARG49      -0.1231
     11  CA        -2.7780   14.9670   -8.7130 C.3    49  ARG49       0.1694
     12  C         -2.1710   14.7180   -7.3600 C.2    49  ARG49       0.2592
     13  O         -2.4900   13.7090   -6.7860 O.2    49  ARG49      -0.2718
     14  CB        -2.0680   14.2240   -9.8880 C.3    49  ARG49       0.0321
     15  CG        -0.7040   14.7440  -10.3420 C.3    49  ARG49       0.0489
     16  CD        -0.7490   15.1760  -11.8210 C.3    49  ARG49       0.2205
     17  NE        -1.7000   16.2850  -12.0030 N.pl3  49  ARG49      -0.0865
     18  CZ        -1.5630   17.2010  -12.9470 C.cat  49  ARG49       0.5346
     19  NH1       -0.5310   17.1680  -13.7660 N.pl3  49  ARG49       0.1354
     20  NH2       -2.4630   18.1550  -13.0790 N.pl3  49  ARG49       0.1354
     21  N         -1.9380   15.7810   -6.6330 N.am   50  ALA50      -0.1966
     22  CA        -1.5350   15.6610   -5.1920 C.3    50  ALA50       0.1728
     23  C         -2.6260   16.1050   -4.2730 C.2    50  ALA50       0.2616
     24  O         -2.3850   16.1680   -3.1010 O.2    50  ALA50      -0.2715
     25  CB        -0.3080   16.5300   -4.8540 C.3    50  ALA50       0.0334
     26  N         -3.5780   16.7470   -4.7830 N.am   51  VAL51      -0.1963
     27  CA        -4.4870   17.4020   -3.8400 C.3    51  VAL51       0.1727
     28  C         -5.3940   16.3040   -3.2400 C.2    51  VAL51       0.2616
     29  O         -5.9330   15.4340   -3.9490 O.2    51  VAL51      -0.2715
     30  CB        -5.3130   18.4220   -4.7000 C.3    51  VAL51       0.0290
     31  CG1       -6.5010   19.0290   -3.9060 C.3    51  VAL51       0.0023
     32  CG2       -4.4480   19.4900   -5.4590 C.3    51  VAL51       0.0023
     33  N         -5.6660   16.5180   -1.9400 N.am   52  ARG52      -0.1977
     34  CA        -6.6390   15.7780   -1.1750 C.3    52  ARG52       0.1597
     35  C         -7.8580   16.6400   -0.7980 C.2    52  ARG52       0.2287
     36  O         -7.7080   17.7600   -0.3160 O.2    52  ARG52      -0.2864
     37  CB        -5.9000   15.0960    0.0140 C.3    52  ARG52       0.0334
     38  CG        -5.0670   14.0490   -0.7110 C.3    52  ARG52       0.0492
     39  CD        -3.8550   13.6080    0.0800 C.3    52  ARG52       0.2205
     40  NE        -4.2080   12.6520    1.1920 N.pl3  52  ARG52      -0.0865
     41  CZ        -3.6760   11.3750    1.3350 C.cat  52  ARG52       0.5346
     42  NH1       -2.7890   10.8490    0.4310 N.pl3  52  ARG52       0.1354
     43  NH2       -3.9160   10.7290    2.5020 N.pl3  52  ARG52       0.1354
     44  N         -9.1190   19.8960   12.1770 N.3    60  LEU60      -0.1231
     45  CA        -8.1530   19.3770   11.2780 C.3    60  LEU60       0.1693
     46  C         -6.9150   18.9580   12.0470 C.2    60  LEU60       0.2593
     47  O         -6.1230   18.1460   11.5540 O.2    60  LEU60      -0.2718
     48  CB        -7.6920   20.3980   10.2320 C.3    60  LEU60       0.0284
     49  CG        -8.7940   20.9520    9.3120 C.3    60  LEU60       0.0019
     50  CD1       -8.1250   21.9180    8.2650 C.3    60  LEU60       0.0001
     51  CD2       -9.6900   19.7920    8.7440 C.3    60  LEU60       0.0001
     52  N         -6.6870   19.5490   13.1770 N.am   61  SER61      -0.1938
     53  CA        -5.4500   19.0790   13.7420 C.3    61  SER61       0.2055
     54  C         -5.6980   17.6990   14.3590 C.2    61  SER61       0.2643
     55  O         -4.7630   17.0170   14.7140 O.2    61  SER61      -0.2714
     56  CB        -5.0340   20.0040   14.8650 C.3    61  SER61       0.2130
     57  OG        -5.8260   19.6460   15.9920 O.3    61  SER61      -0.2179
     58  N         -6.9460   17.2800   14.4610 N.am   62  ARG62      -0.1963
     59  CA        -7.2700   15.9920   15.1390 C.3    62  ARG62       0.1729
     60  C         -7.3640   14.8820   14.1020 C.2    62  ARG62       0.2616
     61  O         -7.4100   15.1930   12.9170 O.2    62  ARG62      -0.2715
     62  CB        -8.6740   16.0380   15.8030 C.3    62  ARG62       0.0348
     63  CG        -8.7050   15.8180   17.3080 C.3    62  ARG62       0.0492
     64  CD        -7.8690   16.8950   18.0090 C.3    62  ARG62       0.2205
     65  NE        -8.3910   17.1550   19.4200 N.pl3  62  ARG62      -0.0865
     66  CZ        -9.4650   18.0120   19.7240 C.cat  62  ARG62       0.5346
     67  NH1      -10.1990   18.6200   18.7820 N.pl3  62  ARG62       0.1354
     68  NH2       -9.7840   18.3370   21.0010 N.pl3  62  ARG62       0.1354
     69  N         -7.5520   13.6600   14.5940 N.am   63  ARG63      -0.1963
     70  CA        -7.9430   12.4770   13.7850 C.3    63  ARG63       0.1729
     71  C         -9.4600   12.1640   13.9200 C.2    63  ARG63       0.2616
     72  O        -10.0540   12.0640   15.0120 O.2    63  ARG63      -0.2715
     73  CB        -7.1300   11.2410   14.1980 C.3    63  ARG63       0.0348
     74  CG        -7.7990    9.9190   13.7790 C.3    63  ARG63       0.0492
     75  CD        -8.6190    9.2250   14.8860 C.3    63  ARG63       0.2205
     76  NE        -9.1500    7.9590   14.3170 N.pl3  63  ARG63      -0.0865
     77  CZ        -9.7870    6.9920   15.0620 C.cat  63  ARG63       0.5346
     78  NH1      -10.1270    7.2330   16.4020 N.pl3  63  ARG63       0.1354
     79  NH2       -9.9950    5.7560   14.4520 N.pl3  63  ARG63       0.1354
     80  N        -10.1360   12.2960   12.8060 N.am   64  GLU64      -0.1964
     81  CA       -11.5690   12.0620   12.8960 C.3    64  GLU64       0.1718
     82  C        -11.9510   10.9620   11.8990 C.2    64  GLU64       0.2458
     83  O        -11.8610   11.2420   10.7010 O.2    64  GLU64      -0.2730
     84  CB       -12.2480   13.4120   12.5380 C.3    64  GLU64       0.0428
     85  CG       -11.8480   14.5520   13.5620 C.3    64  GLU64       0.1163
     86  CD       -12.3080   15.8780   12.9710 C.2    64  GLU64       0.3649
     87  OE1      -12.0650   16.1190   11.8140 O.co2  64  GLU64      -0.2457
     88  OE2      -13.0180   16.6770   13.5680 O.co2  64  GLU64      -0.2457
     89  N        -12.4760    9.8110   12.4620 N.am   65  PRO65      -0.2727
     90  CA       -13.1500    8.6890   11.6990 C.3    65  PRO65       0.1402
     91  C        -14.2140    9.1040   10.6700 C.2    65  PRO65       0.2269
     92  O        -14.4110    8.4210    9.6530 O.2    65  PRO65      -0.2865
     93  CB       -13.8780    7.9150   12.8170 C.3    65  PRO65       0.0296
     94  CG       -13.8530    8.7470   14.0860 C.3    65  PRO65       0.0237
     95  CD       -12.5940    9.5810   13.9630 C.3    65  PRO65       0.0939
     96  N        -14.1900   11.4070    8.6790 N.3    67  ARG67      -0.1231
     97  CA       -13.6020   11.9890    7.3990 C.3    67  ARG67       0.1694
     98  C        -13.5520   11.0010    6.2270 C.2    67  ARG67       0.2595
     99  O        -13.3480    9.7940    6.4450 O.2    67  ARG67      -0.2718
    100  CB       -12.1810   12.6740    7.5760 C.3    67  ARG67       0.0321
    101  CG       -12.0620   13.6140    8.7630 C.3    67  ARG67       0.0489
    102  CD       -10.7180   14.3720    8.5650 C.3    67  ARG67       0.2205
    103  NE       -10.3690   15.2300    9.7360 N.pl3  67  ARG67      -0.0865
    104  CZ        -9.1170   15.3880   10.1340 C.cat  67  ARG67       0.5346
    105  NH1       -8.1640   14.7600    9.4480 N.pl3  67  ARG67       0.1354
    106  NH2       -8.7920   16.3680   11.0230 N.pl3  67  ARG67       0.1354
    107  N        -13.7280   11.5600    5.0570 N.am   68  GLN68      -0.1920
    108  CA       -13.6990   10.8340    3.7740 C.3    68  GLN68       0.1949
    109  C        -12.7850   11.6320    2.8280 C.2    68  GLN68       0.2659
    110  O        -12.9580   12.8460    2.5900 O.2    68  GLN68      -0.2711
    111  CB       -15.1320   10.6740    3.0910 C.2    68  GLN68       0.0091
    112  CG       -16.2630   10.0430    4.0170 C.2    68  GLN68       0.0587
    113  CD       -17.6770   10.0180    3.4280 C.2    68  GLN68       0.2841
    114  OE1      -17.8450    9.9320    2.2120 O.2    68  GLN68      -0.2667
    115  NE2      -18.6540   10.1450    4.3300 N.am   68  GLN68      -0.0837
    116  N        -11.7740   10.9250    2.3000 N.am   69  VAL69      -0.1961
    117  CA       -10.6750   11.4720    1.5320 C.3    69  VAL69       0.1727
    118  C        -10.7140   11.1420    0.0470 C.2    69  VAL69       0.2616
    119  O        -10.7840    9.9770   -0.3240 O.2    69  VAL69      -0.2715
    120  CB        -9.3210   11.1700    2.2200 C.3    69  VAL69       0.0290
    121  CG1       -8.1430   11.5000    1.2500 C.3    69  VAL69       0.0023
    122  CG2       -9.1990   11.9390    3.5510 C.3    69  VAL69       0.0023
    123  N        -10.8070   12.1180   -0.8310 N.am   70  PHE70      -0.1960
    124  CA       -10.8110   11.7040   -2.2330 C.3    70  PHE70       0.1771
    125  C         -9.6360   12.3080   -2.9980 C.2    70  PHE70       0.2619
    126  O         -8.8530   13.1050   -2.5220 O.2    70  PHE70      -0.2715
    127  CB       -12.1450   12.1200   -2.9240 C.3    70  PHE70       0.0574
    128  CG       -13.3800   11.3530   -2.3580 C.ar   70  PHE70      -0.0200
    129  CD1      -14.0200   11.8180   -1.1910 C.ar   70  PHE70      -0.0042
    130  CD2      -13.7130   10.1390   -2.9230 C.ar   70  PHE70      -0.0042
    131  CE1      -14.9850   11.0320   -0.5130 C.ar   70  PHE70      -0.0003
    132  CE2      -14.6500    9.3370   -2.2690 C.ar   70  PHE70      -0.0003
    133  CZ       -15.2910    9.7480   -1.0520 C.ar   70  PHE70      -0.0000
    134  N         -9.6080   12.1390   -4.2650 N.am   71  ALA71      -0.1977
    135  CA        -8.5740   12.7750   -5.0850 C.3    71  ALA71       0.1597
    136  C         -9.3680   13.3100   -6.2690 C.2    71  ALA71       0.2287
    137  O        -10.5690   13.0890   -6.3410 O.2    71  ALA71      -0.2864
    138  CB        -7.5780   11.6780   -5.6460 C.3    71  ALA71       0.0319
    139  N        -12.6830   11.1590   -7.4320 N.3    95  ASN95      -0.1225
    140  CA       -12.3130    9.8210   -7.9650 C.3    95  ASN95       0.1785
    141  C        -13.3060    8.8230   -7.4070 C.2    95  ASN95       0.2597
    142  O        -13.5720    7.7910   -8.0230 O.2    95  ASN95      -0.2718
    143  CB       -10.8920    9.3460   -7.6390 C.3    95  ASN95       0.1169
    144  CG       -10.8500    9.1410   -6.1240 C.2    95  ASN95       0.2627
    145  OD1      -11.5320    9.8700   -5.3800 O.2    95  ASN95      -0.2716
    146  ND2       -9.9130    8.2520   -5.6930 N.am   95  ASN95      -0.0877
    147  N        -14.0290    9.3810   -6.5170 N.am   96  GLY96      -0.1957
    148  CA       -15.2760    8.7440   -6.1140 C.3    96  GLY96       0.1869
    149  C        -16.5470    9.6110   -5.8890 C.2    96  GLY96       0.2309
    150  O        -16.7130   10.7200   -6.3930 O.2    96  GLY96      -0.2863
@<TRIPOS>BOND
     1    19    18    1
     2    20    18    1
     3    18    17    2
     4    17    16    1
     5    16    15    1
     6    15    14    1
     7    14    11    1
     8    10    11    1
     9    11    12    1
    10   142   141    2
    11   140   143    1
    12   140   139    1
    13   140   141    1
    14   143   144    1
    15   141   147   am
    16    12    13    2
    17    12    21   am
    18    21    22    1
    19   147   148    1
    20   150   149    2
    21   137   136    2
    22   136   135    1
    23   144   146   am
    24   144   145    2
    25   148   149    1
    26   138   135    1
    27    32    30    1
    28    22    25    1
    29    22    23    1
    30   135   134    1
    31    26    23   am
    32    26    27    1
    33    30    31    1
    34    30    27    1
    35    23    24    2
    36   134   125   am
    37    29    28    2
    38    27    28    1
    39    28    33   am
    40   125   126    2
    41   125   124    1
    42   127   128    1
    43   127   124    1
    44   130   128   ar
    45   130   132   ar
    46   128   129   ar
    47   132   133   ar
    48   124   123    1
    49    33    34    1
    50   129   131   ar
    51    34    35    1
    52    34    37    1
    53   133   131   ar
    54   123   118   am
    55    35    36    2
    56    38    37    1
    57    38    39    1
    58     4     3    2
    59   119   118    2
    60   118   117    1
    61    39    40    1
    62    42    41    1
    63     3     2    1
    64     1     2    1
    65    40    41    2
    66   121   120    1
    67     2     5    1
    68    41    43    1
    69   117   120    1
    70   117   116    1
    71   114   113    2
    72   120   122    1
    73   116   109   am
    74     5     6    1
    75   110   109    2
    76   109   108    1
    77   111   108    1
    78   111   112    2
    79   113   112    1
    80   113   115   am
    81     6     7    1
    82   108   107    1
    83     7     8    2
    84     7     9   am
    85   107    98   am
    86    98    99    2
    87    98    97    1
    88    97   100    1
    89    97    96    1
    90   100   101    1
    91    50    49    1
    92   102   101    1
    93   102   103    1
    94    51    49    1
    95    49    48    1
    96   105   104    1
    97    92    91    2
    98   103   104    2
    99   104   106    1
   100    48    45    1
   101    91    90    1
   102    83    82    2
   103    45    46    1
   104    45    44    1
   105    47    46    2
   106    90    89    1
   107    90    93    1
   108    87    86   ar
   109    82    89   am
   110    82    81    1
   111    46    52   am
   112    89    95    1
   113    84    81    1
   114    84    85    1
   115    80    81    1
   116    80    71   am
   117    93    94    1
   118    61    60    2
   119    86    85    1
   120    86    88   ar
   121    52    53    1
   122    53    54    1
   123    53    56    1
   124    74    73    1
   125    74    75    1
   126    70    71    1
   127    70    73    1
   128    70    69    1
   129    71    72    2
   130    95    94    1
   131    60    69   am
   132    60    59    1
   133    76    75    1
   134    76    77    2
   135    54    58   am
   136    54    55    2
   137    79    77    1
   138    58    59    1
   139    56    57    1
   140    77    78    1
   141    59    62    1
   142    62    63    1
   143    63    64    1
   144    64    65    1
   145    67    66    1
   146    65    66    2
   147    66    68    1
