@<TRIPOS>MOLECULE
tmp/1pphA00.pdb
 160 160 0 0 0
SMALL
GASTEIGER

@<TRIPOS>ATOM
      1  N          7.3970    2.3950   24.1720 N.3    40  HIS40      -0.1241
      2  CA         6.3480    1.3980   24.1700 C.3    40  HIS40       0.1621
      3  C          6.3390    0.6300   22.8520 C.2    40  HIS40       0.2264
      4  O          5.6310   -0.3700   22.7530 O.2    40  HIS40      -0.2867
      5  CB         4.9700    2.0440   24.4660 C.3    40  HIS40       0.0745
      6  CG         4.2900    2.8230   23.3460 C.ar   40  HIS40       0.0817
      7  ND1        4.2120    4.1430   23.2360 N.ar   40  HIS40      -0.2268
      8  CD2        3.5580    2.2510   22.3200 C.ar   40  HIS40       0.1154
      9  CE1        3.4870    4.4160   22.1810 C.ar   40  HIS40       0.1986
     10  NE2        3.0950    3.2810   21.6470 N.ar   40  HIS40      -0.2212
     11  N          6.0500    2.3990   32.1140 N.3    78  SER78      -0.1202
     12  CA         4.9900    1.8840   31.2390 C.3    78  SER78       0.2020
     13  C          3.5670    2.1480   31.7320 C.2    78  SER78       0.2619
     14  O          2.6080    2.0530   30.9600 O.2    78  SER78      -0.2717
     15  CB         5.1530    0.3940   30.9870 C.3    78  SER78       0.2103
     16  OG         5.3490   -0.3180   32.1950 O.3    78  SER78      -0.2182
     17  N          3.4010    2.5350   33.0000 N.am   79  ASN79      -0.1960
     18  CA         2.0890    2.9130   33.4860 C.3    79  ASN79       0.1819
     19  C          1.6950    4.3370   33.1400 C.2    79  ASN79       0.2622
     20  O          0.5310    4.5720   32.8010 O.2    79  ASN79      -0.2715
     21  CB         1.9820    2.6790   34.9850 C.3    79  ASN79       0.1195
     22  CG         2.0410    1.1860   35.2830 C.2    79  ASN79       0.2630
     23  OD1        2.7560    0.7590   36.1850 O.2    79  ASN79      -0.2716
     24  ND2        1.3720    0.2820   34.5660 N.am   79  ASN79      -0.0877
     25  N          2.6330    5.2850   33.1820 N.am   80  THR80      -0.1937
     26  CA         2.3250    6.6760   32.8890 C.3    80  THR80       0.2028
     27  C          2.7040    7.0940   31.4740 C.2    80  THR80       0.2642
     28  O          2.3460    8.1980   31.0420 O.2    80  THR80      -0.2714
     29  CB         3.0620    7.6010   33.8610 C.3    80  THR80       0.1808
     30  OG1        4.4390    7.2910   33.6830 O.3    80  THR80      -0.2208
     31  CG2        2.6480    7.3850   35.3200 C.3    80  THR80       0.0379
     32  N          3.5100    6.2670   30.7800 N.am   81  LEU81      -0.1977
     33  CA         4.1750    6.5960   29.5150 C.3    81  LEU81       0.1596
     34  C          5.1130    7.7970   29.6060 C.2    81  LEU81       0.2287
     35  O          5.4790    8.4430   28.6210 O.2    81  LEU81      -0.2864
     36  CB         3.1690    6.7230   28.3440 C.3    81  LEU81       0.0297
     37  CG         2.3810    5.4430   28.0080 C.3    81  LEU81       0.0022
     38  CD1        1.6300    5.6050   26.6940 C.3    81  LEU81       0.0001
     39  CD2        3.3140    4.2520   27.8050 C.3    81  LEU81       0.0001
     40  N         -6.3290   13.2830   14.0470 N.3   171  ASP171     -0.1225
     41  CA        -5.4470   12.8530   15.1220 C.3   171  ASP171      0.1805
     42  C         -4.5000   11.7690   14.6140 C.2   171  ASP171      0.2598
     43  O         -4.7510   11.1790   13.5540 O.2   171  ASP171     -0.2718
     44  CB        -6.2950   12.2680   16.2550 C.3   171  ASP171      0.1424
     45  CG        -5.6370   12.1460   17.6350 C.2   171  ASP171      0.3668
     46  OD1       -4.5120   12.6160   17.8080 O.co2 171  ASP171     -0.2456
     47  OD2       -6.2410   11.5640   18.5450 O.co2 171  ASP171     -0.2456
     48  N         -3.4170   11.4500   15.3430 N.am  172  SER172     -0.1938
     49  CA        -2.7610   10.1770   15.1490 C.3   172  SER172      0.2055
     50  C         -3.5290    9.0650   15.8470 C.2   172  SER172      0.2643
     51  O         -4.4620    9.3190   16.6280 O.2   172  SER172     -0.2714
     52  CB        -1.3240   10.2260   15.6420 C.3   172  SER172      0.2130
     53  OG        -1.2410   10.7870   16.9520 O.3   172  SER172     -0.2179
     54  N         -3.1220    7.8080   15.6800 N.am  173  CYS173     -0.1953
     55  CA        -3.9020    6.6990   16.1910 C.3   173  CYS173      0.1843
     56  C         -2.9810    5.4840   16.3110 C.2   173  CYS173      0.2625
     57  O         -1.7750    5.5700   16.0050 O.2   173  CYS173     -0.2714
     58  CB        -5.1000    6.4780   15.2310 C.3   173  CYS173      0.0997
     59  SG        -6.4030    5.4620   15.9660 S.3   173  CYS173     -0.0797
     60  N         -3.5080    4.3400   16.7630 N.am  174  GLN174     -0.1977
     61  CA        -2.7610    3.0980   16.8730 C.3   174  GLN174      0.1601
     62  C         -2.0030    2.7490   15.5730 C.2   174  GLN174      0.2287
     63  O         -2.5270    2.8230   14.4580 O.2   174  GLN174     -0.2864
     64  CB        -3.7540    1.9980   17.2890 C.3   174  GLN174      0.0394
     65  CG        -3.1900    0.5740   17.1410 C.3   174  GLN174      0.0908
     66  CD        -3.9760   -0.5750   17.7720 C.2   174  GLN174      0.2608
     67  OE1       -3.3830   -1.6250   18.0800 O.2   174  GLN174     -0.2717
     68  NE2       -5.2880   -0.4980   18.0330 N.am  174  GLN174     -0.0878
     69  N          2.2550    5.2440   16.5620 N.3   177  SER177     -0.1217
     70  CA         3.1890    5.2280   17.6900 C.3   177  SER177      0.1889
     71  C          4.6510    5.2550   17.2880 C.2   177  SER177      0.2288
     72  O          5.0280    4.5060   16.3870 O.2   177  SER177     -0.2866
     73  CB         2.9840    3.9400   18.4630 C.3   177  SER177      0.2089
     74  OG         1.7600    4.0480   19.1590 O.3   177  SER177     -0.2183
     75  N          5.0670   10.3220   18.4350 N.3   191  VAL191     -0.1231
     76  CA         3.6810    9.9010   18.7130 C.3   191  VAL191      0.1692
     77  C          3.6380    8.9670   19.9390 C.2   191  VAL191      0.2593
     78  O          4.2370    7.8820   19.8930 O.2   191  VAL191     -0.2718
     79  CB         3.1030    9.1990   17.4710 C.3   191  VAL191      0.0266
     80  CG1        1.6880    8.7190   17.7520 C.3   191  VAL191      0.0020
     81  CG2        3.1790   10.1340   16.2610 C.3   191  VAL191      0.0020
     82  N          2.9810    9.3360   21.0350 N.am  192  SER192     -0.1938
     83  CA         3.0120    8.5100   22.2140 C.3   192  SER192      0.2055
     84  C          1.6190    7.9310   22.5320 C.2   192  SER192      0.2643
     85  O          1.4500    6.7020   22.4310 O.2   192  SER192     -0.2714
     86  CB         3.6120    9.3510   23.3240 C.3   192  SER192      0.2130
     87  OG         3.6730    8.7090   24.5870 O.3   192  SER192     -0.2179
     88  N          0.5750    8.7150   22.8620 N.am  193  TRP193     -0.1959
     89  CA        -0.6790    8.1350   23.3520 C.3   193  TRP193      0.1771
     90  C         -1.8330    9.1020   23.1890 C.2   193  TRP193      0.2620
     91  O         -1.5970   10.2330   22.7840 O.2   193  TRP193     -0.2715
     92  CB        -0.6010    7.7190   24.8290 C.3   193  TRP193      0.0590
     93  CG        -0.4120    8.8080   25.8810 C.ar  193  TRP193      0.0006
     94  CD1        0.8430    9.2670   26.1940 C.ar  193  TRP193      0.0946
     95  CD2       -1.3850    9.3860   26.6730 C.ar  193  TRP193      0.0152
     96  NE1        0.6620   10.1380   27.1700 N.ar  193  TRP193     -0.2442
     97  CE2       -0.6460   10.2430   27.4790 C.ar  193  TRP193      0.0810
     98  CE3       -2.7530    9.3450   26.8220 C.ar  193  TRP193      0.0012
     99  CZ2       -1.2400   11.0430   28.4520 C.ar  193  TRP193      0.0191
    100  CZ3       -3.3560   10.1380   27.7830 C.ar  193  TRP193      0.0001
    101  CH2       -2.6210   10.9870   28.5860 C.ar  193  TRP193      0.0015
    102  N         -3.0840    8.7080   23.4340 N.am  194  GLY194     -0.1940
    103  CA        -4.2280    9.6140   23.5050 C.3   194  GLY194      0.2014
    104  C         -5.4180    8.7950   24.0050 C.2   194  GLY194      0.2640
    105  O         -5.2650    7.5670   24.0880 O.2   194  GLY194     -0.2714
    106  N         -6.5910    9.3480   24.3730 N.am  195  SER195     -0.1935
    107  CA        -7.7790    8.4970   24.6360 C.3   195  SER195      0.2055
    108  C         -8.5740    8.3130   23.3700 C.2   195  SER195      0.2644
    109  O         -9.1460    9.2870   22.8630 O.2   195  SER195     -0.2714
    110  CB        -8.7860    9.0710   25.6290 C.3   195  SER195      0.2130
    111  OG        -8.0160    9.4640   26.7250 O.3   195  SER195     -0.2179
    112  N         -8.5690    7.0960   22.8410 N.am  196  GLY196     -0.1939
    113  CA        -9.1880    6.8300   21.5540 C.3   196  GLY196      0.2014
    114  C         -8.3360    7.5150   20.4940 C.2   196  GLY196      0.2639
    115  O         -7.1410    7.7880   20.7300 O.2   196  GLY196     -0.2714
    116  N         -8.9630    7.8240   19.3680 N.am  197  CYS197     -0.1967
    117  CA        -8.3410    8.5770   18.3100 C.3   197  CYS197      0.1712
    118  C         -9.3810    9.5370   17.7840 C.2   197  CYS197      0.2296
    119  O        -10.5340    9.1890   17.5270 O.2   197  CYS197     -0.2864
    120  CB        -7.9190    7.6660   17.1830 C.3   197  CYS197      0.0983
    121  SG        -6.8270    6.3410   17.7530 S.3   197  CYS197     -0.0798
    122  N         -9.9730   15.3690   23.3590 N.3   202  LYS202     -0.1231
    123  CA        -8.9590   14.4070   23.7880 C.3   202  LYS202      0.1678
    124  C         -7.8710   14.4340   22.7060 C.2   202  LYS202      0.2434
    125  O         -7.8400   13.5490   21.8410 O.2   202  LYS202     -0.2733
    126  CB        -9.5440   12.9780   23.9060 C.3   202  LYS202      0.0284
    127  CG       -10.6560   12.7250   24.9320 C.3   202  LYS202      0.0035
    128  CD       -10.0180   12.9210   26.2940 C.3   202  LYS202      0.0206
    129  CE       -11.0790   12.9490   27.4040 C.3   202  LYS202      0.1093
    130  NZ       -10.4860   13.4350   28.6540 N.3   202  LYS202     -0.1314
    131  N         -7.0100   15.4560   22.6440 N.am  203  PRO203     -0.2718
    132  CA        -5.9490   15.5350   21.6460 C.3   203  PRO203      0.1535
    133  C         -4.8520   14.4760   21.8060 C.2   203  PRO203      0.2599
    134  O         -4.7710   13.7820   22.8170 O.2   203  PRO203     -0.2715
    135  CB        -5.4700   16.9620   21.8070 C.3   203  PRO203      0.0310
    136  CG        -5.6010   17.2010   23.3000 C.3   203  PRO203      0.0237
    137  CD        -6.9360   16.5500   23.5990 C.3   203  PRO203      0.0939
    138  N         -3.9910   14.3300   20.7930 N.am  204  GLY204     -0.1941
    139  CA        -2.8900   13.3890   20.9080 C.3   204  GLY204      0.2014
    140  C         -1.8420   13.9500   21.8580 C.2   204  GLY204      0.2639
    141  O         -1.6720   15.1660   21.9570 O.2   204  GLY204     -0.2714
    142  N         -1.1260   13.0560   22.5260 N.am  205  VAL205     -0.1963
    143  CA        -0.0580   13.4210   23.4420 C.3   205  VAL205      0.1727
    144  C          1.2390   12.8140   22.8900 C.2   205  VAL205      0.2616
    145  O          1.2730   11.6950   22.3450 O.2   205  VAL205     -0.2715
    146  CB        -0.3320   12.8760   24.8400 C.3   205  VAL205      0.0290
    147  CG1        0.7620   13.3540   25.8100 C.3   205  VAL205      0.0023
    148  CG2       -1.7180   13.3220   25.3280 C.3   205  VAL205      0.0023
    149  N          2.3150   13.6100   22.9990 N.am  206  TYR206     -0.1974
    150  CA         3.5440   13.4180   22.2530 C.3   206  TYR206      0.1639
    151  C          4.6970   13.6180   23.2390 C.2   206  TYR206      0.2290
    152  O          4.6360   14.4610   24.1430 O.2   206  TYR206     -0.2864
    153  CB         3.6350   14.4390   21.1270 C.3   206  TYR206      0.0560
    154  CG         2.5390   14.2380   20.0930 C.ar  206  TYR206     -0.0198
    155  CD1        2.6830   13.2560   19.1420 C.ar  206  TYR206     -0.0009
    156  CD2        1.3510   14.9680   20.1710 C.ar  206  TYR206     -0.0009
    157  CE1        1.6540   12.9860   18.2510 C.ar  206  TYR206      0.0417
    158  CE2        0.3080   14.6910   19.2830 C.ar  206  TYR206      0.0417
    159  CZ         0.4630   13.6990   18.3280 C.ar  206  TYR206      0.1957
    160  OH        -0.5920   13.3500   17.4910 O.3   206  TYR206     -0.2866
@<TRIPOS>BOND
     1    43    42    2
     2    40    41    1
     3    63    62    2
     4    42    41    1
     5    42    48   am
     6    41    44    1
     7    49    48    1
     8    49    52    1
     9    49    50    1
    10    58    59    1
    11    58    55    1
    12    62    61    1
    13    52    53    1
    14    54    50   am
    15    54    55    1
    16    50    51    2
    17    59   121    1
    18    57    56    2
    19    55    56    1
    20    44    45    1
    21    81    79    1
    22    56    60   am
    23    72    71    2
    24    69    70    1
    25    60    61    1
    26    61    64    1
    27    65    64    1
    28    65    66    1
    29   120   121    1
    30   120   117    1
    31    71    70    1
    32    79    80    1
    33    79    76    1
    34   160   159    1
    35   119   118    2
    36    45    46   ar
    37    45    47   ar
    38    70    73    1
    39    66    68   am
    40    66    67    2
    41   118   117    1
    42   157   159   ar
    43   157   155   ar
    44   117   116    1
    45   159   158   ar
    46    75    76    1
    47    73    74    1
    48    76    77    1
    49   155   154   ar
    50   158   156   ar
    51   116   114   am
    52    78    77    2
    53    77    82   am
    54   154   156   ar
    55   154   153    1
    56   114   115    2
    57   114   113    1
    58   138   139    1
    59   138   133   am
    60   139   140    1
    61    82    83    1
    62   153   150    1
    63   113   112    1
    64   132   133    1
    65   132   135    1
    66   132   131    1
    67    10     9   ar
    68    10     8   ar
    69   133   134    2
    70   135   136    1
    71   125   124    2
    72   140   141    2
    73   140   142   am
    74     9     7   ar
    75    83    84    1
    76    83    86    1
    77   150   149    1
    78   150   151    1
    79     8     6   ar
    80   145   144    2
    81    85    84    2
    82   142   143    1
    83    84    88   am
    84   131   124   am
    85   131   137    1
    86   124   123    1
    87     4     3    2
    88    91    90    2
    89   112   108   am
    90     3     2    1
    91    88    89    1
    92   109   108    2
    93   144   149   am
    94   144   143    1
    95    90    89    1
    96    90   102   am
    97     7     6   ar
    98   151   152    2
    99   136   137    1
   100    86    87    1
   101     6     5    1
   102    89    92    1
   103   122   123    1
   104   108   107    1
   105   102   103    1
   106   143   146    1
   107   103   104    1
   108   123   126    1
   109   126   127    1
   110   104   105    2
   111   104   106   am
   112     2     1    1
   113     2     5    1
   114   106   107    1
   115   107   110    1
   116    92    93    1
   117   146   148    1
   118   146   147    1
   119   127   128    1
   120   110   111    1
   121    93    94   ar
   122    93    95   ar
   123    94    96   ar
   124   128   129    1
   125    95    98   ar
   126    95    97   ar
   127    38    37    1
   128    98   100   ar
   129    96    97   ar
   130   129   130    1
   131    97    99   ar
   132   100   101   ar
   133    39    37    1
   134    37    36    1
   135    36    33    1
   136    99   101   ar
   137    35    34    2
   138    33    34    1
   139    33    32    1
   140    32    27   am
   141    14    13    2
   142    15    12    1
   143    15    16    1
   144    28    27    2
   145    12    13    1
   146    12    11    1
   147    27    26    1
   148    13    17   am
   149    20    19    2
   150    26    25    1
   151    26    29    1
   152    17    18    1
   153    19    25   am
   154    19    18    1
   155    18    21    1
   156    30    29    1
   157    29    31    1
   158    24    22   am
   159    21    22    1
   160    22    23    2
