@<TRIPOS>MOLECULE
tmp/1ppiA00.pdb
 208 204 0 0 0
SMALL
GASTEIGER

@<TRIPOS>ATOM
      1  N         -0.1540   37.7000   25.4280 N.3    58  TRP58      -0.1227
      2  CA         0.9570   38.6180   25.2520 C.3    58  TRP58       0.1737
      3  C          0.3920   39.9530   24.7890 C.2    58  TRP58       0.2595
      4  O          0.9070   41.0080   25.1700 O.2    58  TRP58      -0.2718
      5  CB         1.9700   38.0780   24.1960 C.3    58  TRP58       0.0564
      6  CG         1.4110   37.8600   22.7890 C.ar   58  TRP58       0.0003
      7  CD1        0.8630   36.7190   22.4740 C.ar   58  TRP58       0.0946
      8  CD2        1.3640   38.7990   21.7630 C.ar   58  TRP58       0.0152
      9  NE1        0.4330   36.8680   21.2480 N.ar   58  TRP58      -0.2442
     10  CE2        0.7050   38.1000   20.7810 C.ar   58  TRP58       0.0810
     11  CE3        1.7760   40.1380   21.5270 C.ar   58  TRP58       0.0012
     12  CZ2        0.4280   38.6870   19.5640 C.ar   58  TRP58       0.0191
     13  CZ3        1.4940   40.7050   20.3080 C.ar   58  TRP58       0.0001
     14  CH2        0.8220   39.9900   19.3260 C.ar   58  TRP58       0.0015
     15  N         -0.6820   39.9540   23.9830 N.am   59  TRP59      -0.1976
     16  CA        -1.1790   41.1960   23.4010 C.3    59  TRP59       0.1640
     17  C         -1.9940   42.0840   24.2960 C.2    59  TRP59       0.2290
     18  O         -2.3290   43.1850   23.8410 O.2    59  TRP59      -0.2864
     19  CB        -1.9830   40.9500   22.0960 C.3    59  TRP59       0.0576
     20  CG        -3.0390   39.8440   22.0640 C.ar   59  TRP59       0.0006
     21  CD1       -2.7970   38.7140   21.3510 C.ar   59  TRP59       0.0946
     22  CD2       -4.2900   39.8330   22.6540 C.ar   59  TRP59       0.0152
     23  NE1       -3.8750   37.9640   21.4700 N.ar   59  TRP59      -0.2442
     24  CE2       -4.7840   38.5950   22.2350 C.ar   59  TRP59       0.0810
     25  CE3       -5.0740   40.6560   23.4440 C.ar   59  TRP59       0.0012
     26  CZ2       -6.0130   38.1860   22.5910 C.ar   59  TRP59       0.0191
     27  CZ3       -6.3240   40.2440   23.8040 C.ar   59  TRP59       0.0001
     28  CH2       -6.7870   39.0160   23.3790 C.ar   59  TRP59       0.0015
     29  N         -0.7260   45.6820   24.4720 N.3    62  TYR62      -0.1227
     30  CA        -0.8940   46.6500   23.3960 C.3    62  TYR62       0.1736
     31  C         -2.2080   47.4000   23.5790 C.2    62  TYR62       0.2595
     32  O         -2.7380   48.0110   22.6430 O.2    62  TYR62      -0.2718
     33  CB        -0.8040   45.9190   22.0170 C.3    62  TYR62       0.0548
     34  CG         0.6640   45.5690   21.7230 C.ar   62  TYR62      -0.0200
     35  CD1        1.4910   46.5370   21.2340 C.ar   62  TYR62      -0.0009
     36  CD2        1.1510   44.3360   22.0930 C.ar   62  TYR62      -0.0009
     37  CE1        2.8400   46.2910   21.1310 C.ar   62  TYR62       0.0417
     38  CE2        2.4950   44.0720   22.0060 C.ar   62  TYR62       0.0417
     39  CZ         3.3220   45.0440   21.5300 C.ar   62  TYR62       0.1957
     40  OH         4.6870   44.7770   21.4530 O.3    62  TYR62      -0.2866
     41  N         -2.7160   47.3720   24.8320 N.am   63  GLN63      -0.1979
     42  CA        -3.9160   48.0700   25.2230 C.3    63  GLN63       0.1601
     43  C         -3.6630   49.0010   26.4140 C.2    63  GLN63       0.2287
     44  O         -4.0230   48.6870   27.5530 O.2    63  GLN63      -0.2864
     45  CB        -4.9980   47.0240   25.5550 C.3    63  GLN63       0.0394
     46  CG        -5.3550   46.1950   24.3020 C.3    63  GLN63       0.0908
     47  CD        -6.6230   45.3950   24.4280 C.2    63  GLN63       0.2608
     48  OE1       -7.6210   45.8860   24.9550 O.2    63  GLN63      -0.2717
     49  NE2       -6.6580   44.1750   23.9150 N.am   63  GLN63      -0.0878
     50  N         -3.3840   54.5550   20.2630 N.3   101  HIS101     -0.1241
     51  CA        -4.6420   54.0870   20.7740 C.3   101  HIS101      0.1621
     52  C         -4.5450   53.8150   22.2490 C.2   101  HIS101      0.2264
     53  O         -3.4460   53.8020   22.8160 O.2   101  HIS101     -0.2867
     54  CB        -5.0580   52.7830   20.0380 C.3   101  HIS101      0.0745
     55  CG        -4.0080   51.6670   20.0390 C.ar  101  HIS101      0.0817
     56  ND1       -3.2730   51.4700   18.9580 N.ar  101  HIS101     -0.2268
     57  CD2       -3.7190   50.8160   21.0550 C.ar  101  HIS101      0.1154
     58  CE1       -2.4920   50.4540   19.3000 C.ar  101  HIS101      0.1986
     59  NE2       -2.7610   50.0790   20.5430 N.ar  101  HIS101     -0.2212
     60  N         -9.0790   48.3890   23.9000 N.3   104  GLY104     -0.1225
     61  CA       -10.2480   48.0410   23.1190 C.3   104  GLY104      0.1811
     62  C        -11.4890   48.6030   23.7800 C.2   104  GLY104      0.2280
     63  O        -11.6660   48.5270   25.0060 O.2   104  GLY104     -0.2866
     64  N         -7.7040   48.7660    3.6810 N.3   151  TYR151     -0.1241
     65  CA        -6.4020   49.3990    3.7600 C.3   151  TYR151      0.1605
     66  C         -6.1100   50.1690    2.4810 C.2   151  TYR151      0.2264
     67  O         -4.9750   50.5780    2.2300 O.2   151  TYR151     -0.2867
     68  CB        -5.3410   48.3290    4.0270 C.3   151  TYR151      0.0534
     69  CG        -5.1620   48.0300    5.5060 C.ar  151  TYR151     -0.0201
     70  CD1       -6.0210   47.1810    6.1460 C.ar  151  TYR151     -0.0009
     71  CD2       -4.1360   48.6400    6.2310 C.ar  151  TYR151     -0.0009
     72  CE1       -5.8920   46.9260    7.5000 C.ar  151  TYR151      0.0417
     73  CE2       -4.0170   48.3750    7.5870 C.ar  151  TYR151      0.0417
     74  CZ        -4.9180   47.5190    8.1840 C.ar  151  TYR151      0.1957
     75  OH        -4.8420   47.3270    9.5470 O.3   151  TYR151     -0.2866
     76  N         -8.1810   50.3830   14.8300 N.3   162  LEU162     -0.1231
     77  CA        -7.4350   49.1820   14.4690 C.3   162  LEU162      0.1693
     78  C         -7.9770   48.0960   15.4130 C.2   162  LEU162      0.2592
     79  O         -7.9180   48.2810   16.6450 O.2   162  LEU162     -0.2718
     80  CB        -5.9360   49.4230   14.7330 C.3   162  LEU162      0.0284
     81  CG        -4.7600   48.6020   14.1440 C.3   162  LEU162      0.0019
     82  CD1       -3.8870   48.3060   15.3160 C.3   162  LEU162      0.0001
     83  CD2       -5.1540   47.3200   13.3970 C.3   162  LEU162      0.0001
     84  N         -8.4680   46.9480   14.9280 N.am  163  VAL163     -0.1966
     85  CA        -9.0830   45.8900   15.7520 C.3   163  VAL163      0.1727
     86  C         -9.7930   46.3090   17.0370 C.2   163  VAL163      0.2617
     87  O         -9.7030   45.7160   18.1170 O.2   163  VAL163     -0.2715
     88  CB        -8.0650   44.7600   16.1080 C.3   163  VAL163      0.0290
     89  CG1       -7.7770   44.0700   14.7820 C.3   163  VAL163      0.0023
     90  CG2       -6.8170   45.2120   16.8180 C.3   163  VAL163      0.0023
     91  N        -10.5720   47.3850   16.8810 N.am  164  GLY164     -0.1940
     92  CA       -11.4030   47.9120   17.9390 C.3   164  GLY164      0.2014
     93  C        -10.6630   48.6570   19.0290 C.2   164  GLY164      0.2638
     94  O        -11.2220   48.8940   20.1030 O.2   164  GLY164     -0.2714
     95  N         -9.4790   49.1270   18.7900 N.am  165  LEU165     -0.1977
     96  CA        -8.7540   49.8670   19.8270 C.3   165  LEU165      0.1596
     97  C         -9.1330   51.3300   19.7620 C.2   165  LEU165      0.2287
     98  O         -9.2280   51.8980   18.6730 O.2   165  LEU165     -0.2864
     99  CB        -7.2550   49.7160   19.6040 C.3   165  LEU165      0.0297
    100  CG        -6.7820   48.3100   19.9470 C.3   165  LEU165      0.0022
    101  CD1       -5.4700   47.9270   19.2670 C.3   165  LEU165      0.0001
    102  CD2       -6.5510   48.1190   21.4440 C.3   165  LEU165      0.0001
    103  N         10.5880   52.2670   19.4290 N.3   195  ARG195     -0.1245
    104  CA         9.8970   51.5800   18.3660 C.3   195  ARG195      0.1563
    105  C          8.5370   52.2830   18.3910 C.2   195  ARG195      0.2260
    106  O          7.8510   52.2160   19.4260 O.2   195  ARG195     -0.2867
    107  CB         9.6950   50.0710   18.6570 C.3   195  ARG195      0.0307
    108  CG         8.9240   49.5300   17.4410 C.3   195  ARG195      0.0489
    109  CD         8.4920   48.0840   17.3410 C.3   195  ARG195      0.2205
    110  NE         7.2300   47.9900   18.0020 N.pl3 195  ARG195     -0.0865
    111  CZ         6.1320   47.4120   17.4980 C.cat 195  ARG195      0.5346
    112  NH1        6.0150   46.7970   16.3320 N.pl3 195  ARG195      0.1354
    113  NH2        5.0890   47.4540   18.2780 N.pl3 195  ARG195      0.1354
    114  N          4.8750   52.1010   17.7200 N.3   197  ASP197     -0.1225
    115  CA         3.9020   51.0930   17.4010 C.3   197  ASP197      0.1805
    116  C          2.8260   51.6480   16.4930 C.2   197  ASP197      0.2597
    117  O          2.2810   52.7390   16.6820 O.2   197  ASP197     -0.2718
    118  CB         3.2750   50.5580   18.6870 C.3   197  ASP197      0.1424
    119  CG         2.2540   49.4600   18.4140 C.2   197  ASP197      0.3668
    120  OD1        2.6090   48.3650   17.9220 O.co2 197  ASP197     -0.2456
    121  OD2        1.0870   49.7280   18.6870 O.co2 197  ASP197     -0.2456
    122  N          2.5000   50.7910   15.5360 N.am  198  ALA198     -0.1979
    123  CA         1.4320   50.9910   14.5860 C.3   198  ALA198      0.1597
    124  C          1.5370   52.3500   13.9310 C.2   198  ALA198      0.2287
    125  O          0.5090   53.0230   13.8040 O.2   198  ALA198     -0.2864
    126  CB         0.0380   50.8400   15.2940 C.3   198  ALA198      0.0319
    127  N          1.6610   53.1650   10.9180 N.3   200  LYS200     -0.1231
    128  CA         0.8270   53.2330    9.7470 C.3   200  LYS200      0.1693
    129  C         -0.5430   53.7690   10.1160 C.2   200  LYS200      0.2592
    130  O         -1.2850   54.2780    9.2920 O.2   200  LYS200     -0.2718
    131  CB         0.7330   51.8380    9.2160 C.3   200  LYS200      0.0285
    132  CG        -0.0320   51.6340    7.8960 C.3   200  LYS200      0.0035
    133  CD        -0.2720   50.1640    7.8320 C.3   200  LYS200      0.0206
    134  CE        -0.1260   49.7880    6.4100 C.3   200  LYS200      0.1093
    135  NZ        -0.1750   48.3460    6.3050 N.3   200  LYS200     -0.1314
    136  N         -0.9810   53.6270   11.3700 N.am  201  HIS201     -0.1976
    137  CA        -2.3220   54.0330   11.7810 C.3   201  HIS201      0.1656
    138  C         -2.3950   55.4730   12.2960 C.2   201  HIS201      0.2291
    139  O         -3.4110   55.8840   12.9240 O.2   201  HIS201     -0.2864
    140  CB        -2.7880   53.0120   12.8270 C.3   201  HIS201      0.0771
    141  CG        -2.9590   51.6880   12.0950 C.ar  201  HIS201      0.0820
    142  ND1       -3.9710   51.3600   11.3090 N.ar  201  HIS201     -0.2267
    143  CD2       -2.0450   50.6760   12.0420 C.ar  201  HIS201      0.1154
    144  CE1       -3.7020   50.1910   10.7700 C.ar  201  HIS201      0.1986
    145  NE2       -2.5390   49.7980   11.2230 N.ar  201  HIS201     -0.2212
    146  N          6.9960   51.2600   13.0580 N.3   233  GLU233     -0.1245
    147  CA         6.4290   50.0250   12.5820 C.3   233  GLU233      0.1567
    148  C          5.4120   50.3660   11.4830 C.2   233  GLU233      0.2260
    149  O          4.3280   50.8930   11.7830 O.2   233  GLU233     -0.2867
    150  CB         5.6930   49.2520   13.6970 C.3   233  GLU233      0.0388
    151  CG         5.2160   47.8900   13.1350 C.3   233  GLU233      0.1160
    152  CD         3.8180   47.4380   13.4940 C.2   233  GLU233      0.3649
    153  OE1        3.0150   48.2480   13.9530 O.co2 233  GLU233     -0.2457
    154  OE2        3.5170   46.2510   13.3210 O.co2 233  GLU233     -0.2457
    155  N          3.8590   48.2040    8.1170 N.3   235  ILE235     -0.1245
    156  CA         3.8530   47.0100    7.2690 C.3   235  ILE235      0.1561
    157  C          3.4480   47.4290    5.8590 C.2   235  ILE235      0.2260
    158  O          2.3230   47.8360    5.5880 O.2   235  ILE235     -0.2867
    159  CB         2.8670   45.9350    7.7920 C.3   235  ILE235      0.0252
    160  CG1        3.3080   45.5110    9.1930 C.3   235  ILE235      0.0019
    161  CG2        2.8180   44.7360    6.8520 C.3   235  ILE235      0.0019
    162  CD1        2.3670   44.5350    9.9530 C.3   235  ILE235      0.0001
    163  N         -1.0370   48.4630   -1.2870 N.3   240  GLU240     -0.1245
    164  CA        -1.9730   49.2190   -0.4930 C.3   240  GLU240      0.1567
    165  C         -1.6490   50.6750   -0.7260 C.2   240  GLU240      0.2260
    166  O         -0.6010   51.0090   -1.2900 O.2   240  GLU240     -0.2867
    167  CB        -1.8130   48.9390    0.9800 C.3   240  GLU240      0.0388
    168  CG        -2.3090   47.6050    1.4570 C.3   240  GLU240      0.1160
    169  CD        -2.0190   47.3230    2.9320 C.2   240  GLU240      0.3649
    170  OE1       -1.5010   48.1970    3.6400 O.co2 240  GLU240     -0.2457
    171  OE2       -2.3330   46.2170    3.3710 O.co2 240  GLU240     -0.2457
    172  N          7.9060   39.7150   16.9360 N.3   299  HIS299     -0.1226
    173  CA         6.9430   39.0880   17.8460 C.3   299  HIS299      0.1752
    174  C          5.5850   38.8200   17.2340 C.2   299  HIS299      0.2596
    175  O          4.8180   38.0080   17.7420 O.2   299  HIS299     -0.2718
    176  CB         6.7660   39.9620   19.1130 C.3   299  HIS299      0.0759
    177  CG         6.0280   41.2950   18.8960 C.ar  299  HIS299      0.0818
    178  ND1        6.4960   42.4530   18.4020 N.ar  299  HIS299     -0.2268
    179  CD2        4.7430   41.4510   19.1580 C.ar  299  HIS299      0.1154
    180  CE1        5.5020   43.2920   18.3630 C.ar  299  HIS299      0.1986
    181  NE2        4.4450   42.6820   18.8230 N.ar  299  HIS299     -0.2212
    182  N          5.2020   39.5240   16.1730 N.am  300  ASP300     -0.1974
    183  CA         3.8870   39.3190   15.5880 C.3   300  ASP300      0.1709
    184  C          3.9250   38.1470   14.6230 C.2   300  ASP300      0.2293
    185  O          3.2130   37.1580   14.7820 O.2   300  ASP300     -0.2864
    186  CB         3.4280   40.5370   14.8030 C.3   300  ASP300      0.1436
    187  CG         2.6710   41.6240   15.5570 C.2   300  ASP300      0.3671
    188  OD1        2.2520   41.3580   16.6810 O.co2 300  ASP300     -0.2456
    189  OD2        2.4760   42.7270   15.0110 O.co2 300  ASP300     -0.2456
    190  N          0.6870   36.7370   13.5320 N.3   305  HIS305     -0.1226
    191  CA         0.0040   38.0230   13.5800 C.3   305  HIS305      0.1752
    192  C          0.6700   38.9720   12.5750 C.2   305  HIS305      0.2597
    193  O          1.6520   38.5920   11.9270 O.2   305  HIS305     -0.2718
    194  CB         0.0660   38.5950   14.9950 C.3   305  HIS305      0.0759
    195  CG        -0.9580   37.9930   15.9470 C.ar  305  HIS305      0.0818
    196  ND1       -1.8870   38.6650   16.6150 N.ar  305  HIS305     -0.2268
    197  CD2       -1.0480   36.6730   16.3210 C.ar  305  HIS305      0.1154
    198  CE1       -2.5280   37.8190   17.3820 C.ar  305  HIS305      0.1986
    199  NE2       -2.0180   36.6320   17.1980 N.ar  305  HIS305     -0.2212
    200  N          0.1340   40.1710   12.3320 N.am  306  GLY306     -0.1942
    201  CA         0.7010   41.1270   11.3870 C.3   306  GLY306      0.2014
    202  C          0.6260   40.6230    9.9470 C.2   306  GLY306      0.2638
    203  O         -0.4200   40.2910    9.3880 O.2   306  GLY306     -0.2714
    204  N          1.7980   40.6260    9.3520 N.am  307  ALA307     -0.1977
    205  CA         2.0300   40.1570    8.0050 C.3   307  ALA307      0.1597
    206  C          3.4510   39.5650    7.9350 C.2   307  ALA307      0.2287
    207  O          4.3950   39.9230    8.6620 O.2   307  ALA307     -0.2864
    208  CB         1.9490   41.2960    6.9820 C.3   307  ALA307      0.0319
@<TRIPOS>BOND
     1   166   165    2
     2   163   164    1
     3   165   164    1
     4   164   167    1
     5   167   168    1
     6   168   169    1
     7    67    66    2
     8    66    65    1
     9   169   171   ar
    10   169   170   ar
    11    64    65    1
    12    65    68    1
    13    68    69    1
    14    69    70   ar
    15    69    71   ar
    16   158   157    2
    17   157   156    1
    18    70    72   ar
    19    71    73   ar
    20   135   134    1
    21   134   133    1
    22   161   159    1
    23   208   205    1
    24   156   159    1
    25   156   155    1
    26    72    74   ar
    27    73    74   ar
    28   159   160    1
    29   133   132    1
    30   132   131    1
    31   206   205    1
    32   206   207    2
    33   205   204    1
    34    74    75    1
    35   160   162    1
    36   131   128    1
    37   130   129    2
    38   204   202   am
    39   203   202    2
    40   128   129    1
    41   128   127    1
    42   202   201    1
    43   129   136   am
    44   144   145   ar
    45   144   142   ar
    46   145   143   ar
    47   142   141   ar
    48   136   137    1
    49   201   200    1
    50   148   149    2
    51   148   147    1
    52   137   138    1
    53   137   140    1
    54   193   192    2
    55   143   141   ar
    56   141   140    1
    57   138   139    2
    58   200   192   am
    59   192   191    1
    60   147   146    1
    61   147   150    1
    62   151   152    1
    63   151   150    1
    64   154   152   ar
    65    83    81    1
    66   152   153   ar
    67   190   191    1
    68   191   194    1
    69   125   124    2
    70   124   123    1
    71    81    80    1
    72    81    82    1
    73    77    80    1
    74    77    76    1
    75    77    78    1
    76   123   126    1
    77   123   122    1
    78   184   185    2
    79   184   183    1
    80    89    88    1
    81   186   187    1
    82   186   183    1
    83    84    78   am
    84    84    85    1
    85   194   195    1
    86   189   187   ar
    87    78    79    2
    88   122   116   am
    89   187   188   ar
    90   183   182    1
    91    85    88    1
    92    85    86    1
    93   195   197   ar
    94   195   196   ar
    95    88    90    1
    96   182   174   am
    97   197   199   ar
    98   112   111    1
    99   116   117    2
   100   116   115    1
   101   196   198   ar
   102    91    86   am
   103    91    92    1
   104   172   173    1
   105    86    87    2
   106   199   198   ar
   107   174   175    2
   108   174   173    1
   109   109   108    1
   110   109   110    1
   111   115   114    1
   112   115   118    1
   113   108   107    1
   114   111   110    2
   115   111   113    1
   116   173   176    1
   117   120   119   ar
   118    92    93    1
   119   180   178   ar
   120   180   181   ar
   121   104   105    1
   122   104   107    1
   123   104   103    1
   124   105   106    2
   125   178   177   ar
   126   119   121   ar
   127   119   118    1
   128    98    97    2
   129    95    93   am
   130    95    96    1
   131   181   179   ar
   132   177   176    1
   133   177   179   ar
   134    56    58   ar
   135    56    55   ar
   136    93    94    2
   137   101   100    1
   138    58    59   ar
   139    14    12   ar
   140    14    13   ar
   141    12    10   ar
   142    99    96    1
   143    99   100    1
   144    97    96    1
   145   100   102    1
   146    54    55    1
   147    54    51    1
   148    55    57   ar
   149    50    51    1
   150    13    11   ar
   151    59    57   ar
   152    51    52    1
   153    10     9   ar
   154    10     8   ar
   155    37    35   ar
   156    37    39   ar
   157    35    34   ar
   158     9     7   ar
   159    21    23   ar
   160    21    20   ar
   161    40    39    1
   162    23    24   ar
   163    11     8   ar
   164    39    38   ar
   165    34    33    1
   166    34    36   ar
   167     8     6   ar
   168    38    36   ar
   169    33    30    1
   170    20    19    1
   171    20    22   ar
   172    19    16    1
   173    24    26   ar
   174    24    22   ar
   175    52    53    2
   176     7     6   ar
   177    26    28   ar
   178    32    31    2
   179    22    25   ar
   180     6     5    1
   181    61    62    1
   182    61    60    1
   183    28    27   ar
   184    30    31    1
   185    30    29    1
   186    16    15    1
   187    16    17    1
   188    25    27   ar
   189    31    41   am
   190    62    63    2
   191    18    17    2
   192    49    47   am
   193    15     3   am
   194     5     2    1
   195    46    47    1
   196    46    45    1
   197    47    48    2
   198     3     4    2
   199     3     2    1
   200    41    42    1
   201    42    45    1
   202    42    43    1
   203     2     1    1
   204    43    44    2
