@<TRIPOS>MOLECULE
tmp/1ppjB00.pdb
 80 79 0 0 0
SMALL
GASTEIGER

@<TRIPOS>ATOM
      1  N         46.2780  111.2910  131.9530 N.3    59  SER59      -0.1202
      2  CA        45.1560  111.1410  131.0280 C.3    59  SER59       0.2020
      3  C         44.6900  109.6880  130.8390 C.2    59  SER59       0.2619
      4  O         43.9950  109.3800  129.8640 O.2    59  SER59      -0.2717
      5  CB        45.4860  111.7810  129.6640 C.3    59  SER59       0.2103
      6  OG        46.4750  111.0660  128.9430 O.3    59  SER59      -0.2182
      7  N         45.0470  108.8000  131.7640 N.am   60  LEU60      -0.1965
      8  CA        44.6100  107.4180  131.6410 C.3    60  LEU60       0.1728
      9  C         43.1860  107.3850  132.1390 C.2    60  LEU60       0.2616
     10  O         42.7290  108.3350  132.7700 O.2    60  LEU60      -0.2715
     11  CB        45.4900  106.4730  132.4740 C.3    60  LEU60       0.0311
     12  CG        46.9620  106.2800  132.0790 C.3    60  LEU60       0.0022
     13  CD1       47.4890  104.9750  132.6810 C.3    60  LEU60       0.0001
     14  CD2       47.0980  106.2250  130.5610 C.3    60  LEU60       0.0001
     15  N         42.4780  106.2960  131.8670 N.am   61  THR61      -0.1951
     16  CA        41.0850  106.1510  132.2720 C.3    61  THR61       0.1897
     17  C         40.8490  106.2450  133.7820 C.2    61  THR61       0.2313
     18  O         41.6350  105.7420  134.5850 O.2    61  THR61      -0.2863
     19  CB        40.4950  104.8220  131.7590 C.3    61  THR61       0.1794
     20  OG1       40.5100  104.8180  130.3240 O.3    61  THR61      -0.2208
     21  CG2       39.0600  104.6570  132.2270 C.3    61  THR61       0.0378
     22  N         36.7320  108.4740  130.7340 N.3    66  SER66      -0.1202
     23  CA        37.6420  107.6570  129.9630 C.3    66  SER66       0.2020
     24  C         38.8300  108.4890  129.5290 C.2    66  SER66       0.2619
     25  O         38.7860  109.7280  129.5360 O.2    66  SER66      -0.2717
     26  CB        36.9440  107.1340  128.7180 C.3    66  SER66       0.2103
     27  OG        36.6570  108.2040  127.8230 O.3    66  SER66      -0.2182
     28  N         39.9010  107.8060  129.1470 N.am   67  SER67      -0.1937
     29  CA        41.1080  108.4740  128.7060 C.3    67  SER67       0.2055
     30  C         40.7320  109.3570  127.5310 C.2    67  SER67       0.2643
     31  O         41.1640  110.4980  127.4660 O.2    67  SER67      -0.2714
     32  CB        42.1600  107.4440  128.2830 C.3    67  SER67       0.2130
     33  OG        43.3700  108.0430  127.8410 O.3    67  SER67      -0.2179
     34  N         39.9130  108.8150  126.6280 N.am   68  PHE68      -0.1973
     35  CA        39.4660  109.5260  125.4360 C.3    68  PHE68       0.1639
     36  C         38.7100  110.7910  125.8080 C.2    68  PHE68       0.2290
     37  O         38.9570  111.8470  125.2310 O.2    68  PHE68      -0.2864
     38  CB        38.5870  108.6110  124.5640 C.3    68  PHE68       0.0560
     39  CG        37.9640  109.2990  123.3840 C.ar   68  PHE68      -0.0200
     40  CD1       36.7020  109.8710  123.4750 C.ar   68  PHE68      -0.0042
     41  CD2       38.6370  109.3620  122.1670 C.ar   68  PHE68      -0.0042
     42  CE1       36.1240  110.4940  122.3640 C.ar   68  PHE68      -0.0003
     43  CE2       38.0750  109.9780  121.0550 C.ar   68  PHE68      -0.0003
     44  CZ        36.8080  110.5450  121.1600 C.ar   68  PHE68      -0.0000
     45  N         46.2400   97.1850  130.8170 N.3   120  TRP120     -0.1227
     46  CA        46.6760   97.4050  129.4400 C.3   120  TRP120      0.1737
     47  C         47.0700   98.8500  129.1300 C.2   120  TRP120      0.2595
     48  O         47.9330   99.0870  128.2790 O.2   120  TRP120     -0.2718
     49  CB        45.5980   96.9250  128.4600 C.3   120  TRP120      0.0564
     50  CG        44.2320   97.4690  128.7020 C.ar  120  TRP120      0.0003
     51  CD1       43.7010   98.6020  128.1830 C.ar  120  TRP120      0.0946
     52  CD2       43.2160   96.8910  129.5310 C.ar  120  TRP120      0.0152
     53  NE1       42.4130   98.7750  128.6310 N.ar  120  TRP120     -0.2442
     54  CE2       42.0910   97.7390  129.4660 C.ar  120  TRP120      0.0810
     55  CE3       43.1470   95.7360  130.3250 C.ar  120  TRP120      0.0012
     56  CZ2       40.9110   97.4740  130.1600 C.ar  120  TRP120      0.0191
     57  CZ3       41.9660   95.4640  131.0190 C.ar  120  TRP120      0.0001
     58  CH2       40.8660   96.3380  130.9270 C.ar  120  TRP120      0.0015
     59  N         46.4590   99.8150  129.8170 N.am  121  GLU121     -0.1979
     60  CA        46.7970  101.2220  129.5890 C.3   121  GLU121      0.1602
     61  C         48.1360  101.5170  130.2700 C.2   121  GLU121      0.2287
     62  O         48.9490  102.2790  129.7550 O.2   121  GLU121     -0.2864
     63  CB        45.7000  102.1420  130.1490 C.3   121  GLU121      0.0415
     64  CG        44.3500  102.0360  129.4580 C.3   121  GLU121      0.1163
     65  CD        43.4000  103.1490  129.8540 C.2   121  GLU121      0.3649
     66  OE1       43.7810  104.0040  130.6930 O.co2 121  GLU121     -0.2457
     67  OE2       42.2690  103.1660  129.3310 O.co2 121  GLU121     -0.2457
     68  N         50.8930  100.0020  128.0800 N.3   124  ALA124     -0.1231
     69  CA        51.0770  100.8090  126.8750 C.3   124  ALA124      0.1694
     70  C         51.7910  102.1400  127.1330 C.2   124  ALA124      0.2591
     71  O         52.4170  102.7040  126.2310 O.2   124  ALA124     -0.2718
     72  CB        49.7300  101.0620  126.2460 C.3   124  ALA124      0.0304
     73  N         51.7100  102.6230  128.3690 N.am  125  LEU125     -0.1980
     74  CA        52.3310  103.8960  128.7220 C.3   125  LEU125      0.1596
     75  C         53.8080  103.7880  129.0830 C.2   125  LEU125      0.2287
     76  O         54.5520  104.7660  128.9510 O.2   125  LEU125     -0.2864
     77  CB        51.5730  104.5410  129.8850 C.3   125  LEU125      0.0297
     78  CG        52.0380  105.9030  130.4150 C.3   125  LEU125      0.0022
     79  CD1       51.9330  106.9400  129.3220 C.3   125  LEU125      0.0001
     80  CD2       51.1870  106.2980  131.6040 C.3   125  LEU125      0.0001
@<TRIPOS>BOND
     1    43    44   ar
     2    43    41   ar
     3    44    42   ar
     4    41    39   ar
     5    42    40   ar
     6    39    40   ar
     7    39    38    1
     8    38    35    1
     9    37    36    2
    10    35    36    1
    11    35    34    1
    12    71    70    2
    13    72    69    1
    14    34    30   am
    15    69    70    1
    16    69    68    1
    17    70    73   am
    18    31    30    2
    19    30    29    1
    20    27    26    1
    21    33    32    1
    22    51    53   ar
    23    51    50   ar
    24    48    47    2
    25    32    29    1
    26    73    74    1
    27    49    50    1
    28    49    46    1
    29    53    54   ar
    30    50    52   ar
    31    29    28    1
    32    26    23    1
    33    74    75    1
    34    74    77    1
    35     6     5    1
    36    76    75    2
    37    47    46    1
    38    47    59   am
    39    28    24   am
    40    79    78    1
    41    67    65   ar
    42    46    45    1
    43    64    65    1
    44    64    63    1
    45    54    52   ar
    46    54    56   ar
    47    24    25    2
    48    24    23    1
    49    52    55   ar
    50    60    59    1
    51    60    63    1
    52    60    61    1
    53     5     2    1
    54    62    61    2
    55    65    66   ar
    56     4     3    2
    57    77    78    1
    58    23    22    1
    59    56    58   ar
    60    20    19    1
    61    55    57   ar
    62    78    80    1
    63    14    12    1
    64     3     2    1
    65     3     7   am
    66    58    57   ar
    67     2     1    1
    68     8     7    1
    69     8     9    1
    70     8    11    1
    71    19    21    1
    72    19    16    1
    73    15     9   am
    74    15    16    1
    75    12    11    1
    76    12    13    1
    77     9    10    2
    78    16    17    1
    79    17    18    2
