@<TRIPOS>MOLECULE
tmp/1ppjD00.pdb
 112 113 0 0 0
SMALL
GASTEIGER

@<TRIPOS>ATOM
      1  N         42.9890   82.0230   25.8070 N.3   106  ASN106     -0.1240
      2  CA        44.2500   81.4150   25.3750 C.3   106  ASN106      0.1653
      3  C         45.1960   81.0320   26.5120 C.2   106  ASN106      0.2266
      4  O         46.4140   81.1780   26.3900 O.2   106  ASN106     -0.2867
      5  CB        45.0020   82.3330   24.4120 C.3   106  ASN106      0.1155
      6  CG        44.3970   82.3440   23.0290 C.2   106  ASN106      0.2627
      7  OD1       43.5690   83.1940   22.7070 O.2   106  ASN106     -0.2716
      8  ND2       44.8020   81.3880   22.2010 N.am  106  ASN106     -0.0877
      9  N         49.6490  100.2520   24.7550 N.3   134  TYR134     -0.1227
     10  CA        49.9260   99.2340   23.7500 C.3   134  TYR134      0.1736
     11  C         50.5680   99.8780   22.5270 C.2   134  TYR134      0.2596
     12  O         50.1900  100.9790   22.1240 O.2   134  TYR134     -0.2718
     13  CB        48.6350   98.5490   23.3300 C.3   134  TYR134      0.0548
     14  CG        48.0700   97.5860   24.3510 C.ar  134  TYR134     -0.0200
     15  CD1       48.3850   96.2270   24.3030 C.ar  134  TYR134     -0.0009
     16  CD2       47.2010   98.0200   25.3440 C.ar  134  TYR134     -0.0009
     17  CE1       47.8340   95.3210   25.2200 C.ar  134  TYR134      0.0417
     18  CE2       46.6540   97.1320   26.2630 C.ar  134  TYR134      0.0417
     19  CZ        46.9680   95.7820   26.1980 C.ar  134  TYR134      0.1957
     20  OH        46.4040   94.8980   27.0980 O.3   134  TYR134     -0.2866
     21  N         51.5370   99.1880   21.9410 N.am  135  CYS135     -0.1956
     22  CA        52.2300   99.6730   20.7570 C.3   135  CYS135      0.1843
     23  C         52.8060   98.4680   20.0490 C.2   135  CYS135      0.2625
     24  O         52.7470   97.3590   20.5800 O.2   135  CYS135     -0.2714
     25  CB        53.3530  100.6410   21.1350 C.3   135  CYS135      0.0997
     26  SG        54.7190   99.9470   22.0960 S.3   135  CYS135     -0.0797
     27  N         53.3550   98.6610   18.8550 N.am  136  GLU136     -0.1964
     28  CA        53.9130   97.5310   18.1290 C.3   136  GLU136      0.1718
     29  C         55.2290   97.0950   18.7560 C.2   136  GLU136      0.2458
     30  O         55.9710   97.9170   19.3000 O.2   136  GLU136     -0.2730
     31  CB        54.1070   97.8770   16.6520 C.3   136  GLU136      0.0428
     32  CG        52.7940   98.0050   15.8930 C.3   136  GLU136      0.1163
     33  CD        51.9560   96.7400   15.9530 C.2   136  GLU136      0.3649
     34  OE1       50.7520   96.8460   16.2630 O.co2 136  GLU136     -0.2457
     35  OE2       52.4910   95.6430   15.6820 O.co2 136  GLU136     -0.2457
     36  N         55.5240   95.7880   18.7010 N.am  137  PRO137     -0.2727
     37  CA        56.7480   95.2160   19.2610 C.3   137  PRO137      0.1402
     38  C         57.9770   95.8930   18.6740 C.2   137  PRO137      0.2269
     39  O         57.9790   96.2930   17.5060 O.2   137  PRO137     -0.2865
     40  CB        56.6710   93.7460   18.8470 C.3   137  PRO137      0.0296
     41  CG        55.2170   93.5050   18.6370 C.3   137  PRO137      0.0237
     42  CD        54.7770   94.7680   17.9510 C.3   137  PRO137      0.0939
     43  N         56.4020   87.7950   19.3540 N.3   143  LEU143     -0.1231
     44  CA        55.5170   87.2380   20.3680 C.3   143  LEU143      0.1693
     45  C         54.7380   86.0300   19.8830 C.2   143  LEU143      0.2592
     46  O         54.2710   85.9840   18.7460 O.2   143  LEU143     -0.2718
     47  CB        54.5400   88.3040   20.8720 C.3   143  LEU143      0.0284
     48  CG        55.1490   89.5450   21.5240 C.3   143  LEU143      0.0019
     49  CD1       54.0190   90.4210   22.0460 C.3   143  LEU143      0.0001
     50  CD2       56.0900   89.1430   22.6560 C.3   143  LEU143      0.0001
     51  N         54.5980   85.0540   20.7720 N.am  144  ARG144     -0.1966
     52  CA        53.8780   83.8290   20.4650 C.3   144  ARG144      0.1729
     53  C         52.4220   84.2320   20.2690 C.2   144  ARG144      0.2616
     54  O         52.0010   85.2710   20.7680 O.2   144  ARG144     -0.2715
     55  CB        54.0420   82.8450   21.6280 C.3   144  ARG144      0.0348
     56  CG        55.4220   82.9590   22.2700 C.3   144  ARG144      0.0492
     57  CD        55.7700   81.8080   23.1930 C.3   144  ARG144      0.2205
     58  NE        57.1020   81.9910   23.7640 N.pl3 144  ARG144     -0.0865
     59  CZ        58.2080   82.1520   23.0430 C.cat 144  ARG144      0.5346
     60  NH1       58.1460   82.1520   21.7160 N.pl3 144  ARG144      0.1354
     61  NH2       59.3780   82.3160   23.6440 N.pl3 144  ARG144      0.1354
     62  N         51.6700   83.4370   19.5160 N.am  145  GLU145     -0.1963
     63  CA        50.2600   83.7220   19.2550 C.3   145  GLU145      0.1733
     64  C         49.5080   83.9740   20.5610 C.2   145  GLU145      0.2617
     65  O         49.7540   83.3070   21.5640 O.2   145  GLU145     -0.2715
     66  CB        49.6240   82.5400   18.5190 C.3   145  GLU145      0.0429
     67  CG        50.2260   82.2590   17.1560 C.3   145  GLU145      0.1163
     68  CD        50.0410   80.8180   16.7360 C.2   145  GLU145      0.3649
     69  OE1       48.9460   80.2610   16.9650 O.co2 145  GLU145     -0.2457
     70  OE2       50.9900   80.2380   16.1720 O.co2 145  GLU145     -0.2457
     71  N         48.5960   84.9420   20.5450 N.am  146  GLY146     -0.1940
     72  CA        47.8160   85.2500   21.7330 C.3   146  GLY146      0.2014
     73  C         48.3970   86.3180   22.6470 C.2   146  GLY146      0.2639
     74  O         47.7130   86.8030   23.5540 O.2   146  GLY146     -0.2714
     75  N         49.6490   86.6970   22.4170 N.am  147  LEU147     -0.1963
     76  CA        50.2980   87.7060   23.2480 C.3   147  LEU147      0.1728
     77  C         50.4730   89.0490   22.5450 C.2   147  LEU147      0.2616
     78  O         50.7590   89.1000   21.3510 O.2   147  LEU147     -0.2715
     79  CB        51.6610   87.1970   23.7150 C.3   147  LEU147      0.0311
     80  CG        51.6700   85.9900   24.6550 C.3   147  LEU147      0.0022
     81  CD1       53.1050   85.6460   25.0350 C.3   147  LEU147      0.0001
     82  CD2       50.8510   86.3130   25.8910 C.3   147  LEU147      0.0001
     83  N         50.3200   90.1290   23.3080 N.am  148  TYR148     -0.1960
     84  CA        50.4480   91.4830   22.7810 C.3   148  TYR148      0.1771
     85  C         51.5820   92.2110   23.4620 C.2   148  TYR148      0.2619
     86  O         51.9000   91.9400   24.6190 O.2   148  TYR148     -0.2715
     87  CB        49.1430   92.2510   22.9880 C.3   148  TYR148      0.0574
     88  CG        47.9830   91.5620   22.3420 C.ar  148  TYR148     -0.0198
     89  CD1       47.4840   90.3710   22.8640 C.ar  148  TYR148     -0.0009
     90  CD2       47.4400   92.0410   21.1520 C.ar  148  TYR148     -0.0009
     91  CE1       46.4860   89.6690   22.2200 C.ar  148  TYR148      0.0417
     92  CE2       46.4410   91.3420   20.4940 C.ar  148  TYR148      0.0417
     93  CZ        45.9720   90.1570   21.0330 C.ar  148  TYR148      0.1957
     94  OH        45.0080   89.4410   20.3700 O.3   148  TYR148     -0.2866
     95  N         52.1920   93.1420   22.7410 N.am  149  PHE149     -0.1974
     96  CA        53.2950   93.8970   23.2920 C.3   149  PHE149      0.1639
     97  C         52.8120   95.0990   24.0640 C.2   149  PHE149      0.2290
     98  O         52.0860   95.9500   23.5440 O.2   149  PHE149     -0.2864
     99  CB        54.2510   94.3780   22.1980 C.3   149  PHE149      0.0560
    100  CG        55.4820   95.0390   22.7400 C.ar  149  PHE149     -0.0200
    101  CD1       56.5630   94.2780   23.1540 C.ar  149  PHE149     -0.0042
    102  CD2       55.5360   96.4190   22.8920 C.ar  149  PHE149     -0.0042
    103  CE1       57.6790   94.8720   23.7190 C.ar  149  PHE149     -0.0003
    104  CE2       56.6600   97.0220   23.4640 C.ar  149  PHE149     -0.0003
    105  CZ        57.7270   96.2460   23.8740 C.ar  149  PHE149     -0.0000
    106  N         44.4400   94.9160   23.5430 N.3   162  PRO162     -0.2116
    107  CA        44.0020   96.2650   23.9100 C.3   162  PRO162      0.1372
    108  C         42.4960   96.2420   24.1390 C.2   162  PRO162      0.2244
    109  O         41.7340   96.0480   23.1950 O.2   162  PRO162     -0.2868
    110  CB        44.3800   97.0890   22.6870 C.3   162  PRO162      0.0268
    111  CG        45.5810   96.3680   22.1460 C.3   162  PRO162      0.0207
    112  CD        45.1640   94.9240   22.2610 C.3   162  PRO162      0.0892
@<TRIPOS>BOND
     1    35    33   ar
     2    32    33    1
     3    32    31    1
     4    33    34   ar
     5    70    68   ar
     6    31    28    1
     7    68    69   ar
     8    68    67    1
     9    67    66    1
    10    39    38    2
    11    42    41    1
    12    42    36    1
    13    28    29    1
    14    28    27    1
    15    66    63    1
    16    41    40    1
    17    38    37    1
    18    36    29   am
    19    36    37    1
    20    46    45    2
    21    29    30    2
    22    40    37    1
    23    27    23   am
    24    63    62    1
    25    63    64    1
    26    43    44    1
    27    62    53   am
    28    45    44    1
    29    45    51   am
    30    23    24    2
    31    23    22    1
    32    53    52    1
    33    53    54    2
    34    44    47    1
    35    94    93    1
    36    52    51    1
    37    52    55    1
    38    92    93   ar
    39    92    90   ar
    40    71    64   am
    41    71    72    1
    42    64    65    2
    43    22    25    1
    44    22    21    1
    45    47    48    1
    46    93    91   ar
    47    25    26    1
    48    90    88   ar
    49    78    77    2
    50    48    49    1
    51    48    50    1
    52    55    56    1
    53    60    59    1
    54    72    73    1
    55    21    11   am
    56    12    11    2
    57   111   112    1
    58   111   110    1
    59    99   100    1
    60    99    96    1
    61     8     6   am
    62    91    89   ar
    63   112   106    1
    64    56    57    1
    65    88    89   ar
    66    88    87    1
    67    75    73   am
    68    75    76    1
    69    11    10    1
    70    77    76    1
    71    77    83   am
    72    73    74    2
    73   110   107    1
    74     7     6    2
    75   100   102   ar
    76   100   101   ar
    77    95    96    1
    78    95    85   am
    79    84    87    1
    80    84    83    1
    81    84    85    1
    82   102   104   ar
    83     6     5    1
    84    59    61    1
    85    59    58    2
    86   101   103   ar
    87    57    58    1
    88   109   108    2
    89    76    79    1
    90    96    97    1
    91    13    10    1
    92    13    14    1
    93    85    86    2
    94   104   105   ar
    95   106   107    1
    96    98    97    2
    97    79    80    1
    98   103   105   ar
    99    10     9    1
   100   107   108    1
   101    15    14   ar
   102    15    17   ar
   103    14    16   ar
   104     5     2    1
   105    80    81    1
   106    80    82    1
   107    17    19   ar
   108    16    18   ar
   109     2     1    1
   110     2     3    1
   111    19    18   ar
   112    19    20    1
   113     4     3    2
