@<TRIPOS>MOLECULE
tmp/1ppjM08.pdb
 188 178 0 0 0
SMALL
GASTEIGER

@<TRIPOS>ATOM
      1  N         52.7380   81.1230   97.8010 N.3     3  ALA3       -0.1231
      2  CA        51.5250   80.7040   97.1170 C.3     3  ALA3        0.1694
      3  C         51.5000   79.2160   97.4130 C.2     3  ALA3        0.2592
      4  O         50.5110   78.5210   97.1720 O.2     3  ALA3       -0.2718
      5  CB        51.6500   80.9460   95.6220 C.3     3  ALA3        0.0304
      6  N         52.6160   78.7460   97.9660 N.am    4  PHE4       -0.1976
      7  CA        52.7850   77.3390   98.2920 C.3     4  PHE4        0.1639
      8  C         53.6770   77.1000   99.5170 C.2     4  PHE4        0.2290
      9  O         53.3850   77.5590  100.6170 O.2     4  PHE4       -0.2864
     10  CB        53.3890   76.6100   97.0900 C.3     4  PHE4        0.0560
     11  CG        52.6580   76.9010   95.7990 C.ar    4  PHE4       -0.0200
     12  CD1       51.2930   76.5770   95.6700 C.ar    4  PHE4       -0.0042
     13  CD2       53.3060   77.5060   94.7330 C.ar    4  PHE4       -0.0042
     14  CE1       50.5870   76.8660   94.4720 C.ar    4  PHE4       -0.0003
     15  CE2       52.6140   77.8000   93.5340 C.ar    4  PHE4       -0.0003
     16  CZ        51.2460   77.4730   93.4160 C.ar    4  PHE4       -0.0000
     17  N         53.5590   78.5470  103.1270 N.3     7  LEU7       -0.1245
     18  CA        52.3020   79.2230  103.4010 C.3     7  LEU7        0.1561
     19  C         51.6810   78.5540  104.6160 C.2     7  LEU7        0.2260
     20  O         51.5240   77.3280  104.6400 O.2     7  LEU7       -0.2867
     21  CB        51.3780   79.0940  102.1930 C.3     7  LEU7        0.0270
     22  CG        50.6430   80.3290  101.6820 C.3     7  LEU7        0.0019
     23  CD1       49.4660   80.6500  102.5540 C.3     7  LEU7        0.0001
     24  CD2       51.6000   81.4920  101.6390 C.3     7  LEU7        0.0001
     25  N         48.9160   77.1090  106.9000 N.3     9  ALA9       -0.1245
     26  CA        47.5640   76.6580  106.6330 C.3     9  ALA9        0.1562
     27  C         46.9700   76.0350  107.8860 C.2     9  ALA9        0.2260
     28  O         47.6930   75.5190  108.7250 O.2     9  ALA9       -0.2867
     29  CB        47.5710   75.6570  105.4910 C.3     9  ALA9        0.0290
     30  N         41.6870   71.7100  108.0310 N.3    13  ILE13      -0.1231
     31  CA        40.7460   71.8250  106.9250 C.3    13  ILE13       0.1692
     32  C         40.4980   70.4490  106.3250 C.2    13  ILE13       0.2592
     33  O         41.3970   69.6080  106.2710 O.2    13  ILE13      -0.2718
     34  CB        41.2240   72.8200  105.8400 C.3    13  ILE13       0.0266
     35  CG1       42.7140   72.6510  105.5670 C.3    13  ILE13       0.0019
     36  CG2       40.8910   74.2370  106.2770 C.3    13  ILE13       0.0020
     37  CD1       43.2730   73.6840  104.6050 C.3    13  ILE13       0.0001
     38  N         39.2560   70.2300  105.9070 N.am   14  SER14      -0.1952
     39  CA        38.8260   68.9600  105.3350 C.3    14  SER14       0.1924
     40  C         38.8890   68.9750  103.8250 C.2    14  SER14       0.2314
     41  O         39.3210   69.9470  103.2270 O.2    14  SER14      -0.2863
     42  CB        37.3930   68.6660  105.7560 C.3    14  SER14       0.2116
     43  OG        36.5250   69.6390  105.1820 O.3    14  SER14      -0.2180
     44  N         37.9850   71.7090  101.2680 N.3    17  TRP17      -0.1227
     45  CA        38.9150   72.7880  100.9490 C.3    17  TRP17       0.1737
     46  C         39.7630   72.4260   99.7240 C.2    17  TRP17       0.2595
     47  O         40.6110   73.2150   99.2990 O.2    17  TRP17      -0.2718
     48  CB        39.8200   73.0800  102.1500 C.3    17  TRP17       0.0564
     49  CG        39.3100   74.1960  103.0320 C.ar   17  TRP17       0.0003
     50  CD1       39.7880   75.4810  103.0960 C.ar   17  TRP17       0.0946
     51  CD2       38.2090   74.1370  103.9430 C.ar   17  TRP17       0.0152
     52  NE1       39.0510   76.2190  103.9860 N.ar   17  TRP17      -0.2442
     53  CE2       38.0740   75.4200  104.5250 C.ar   17  TRP17       0.0810
     54  CE3       37.3200   73.1240  104.3270 C.ar   17  TRP17       0.0012
     55  CZ2       37.0850   75.7150  105.4690 C.ar   17  TRP17       0.0191
     56  CZ3       36.3350   73.4190  105.2640 C.ar   17  TRP17       0.0001
     57  CH2       36.2290   74.7070  105.8210 C.ar   17  TRP17       0.0015
     58  N         39.5030   71.2520   99.1460 N.am   18  ASN18      -0.1974
     59  CA        40.2370   70.7720   97.9740 C.3    18  ASN18       0.1688
     60  C         39.7070   71.3420   96.6740 C.2    18  ASN18       0.2292
     61  O         40.4020   71.3660   95.6680 O.2    18  ASN18      -0.2864
     62  CB        40.1670   69.2430   97.8680 C.3    18  ASN18       0.1181
     63  CG        41.3190   68.5440   98.5670 C.2    18  ASN18       0.2629
     64  OD1       41.3080   68.3670   99.7820 O.2    18  ASN18      -0.2716
     65  ND2       42.3180   68.1300   97.7920 N.am   18  ASN18      -0.0877
     66  N         39.2010   74.3330   95.6380 N.3    20  GLY20      -0.1210
     67  CA        39.8280   75.5220   95.0900 C.3    20  GLY20       0.1956
     68  C         40.8690   75.1040   94.0750 C.2    20  GLY20       0.2612
     69  O         40.9190   75.6440   92.9720 O.2    20  GLY20      -0.2717
     70  N         41.7020   74.1310   94.4450 N.am   21  SER21      -0.1952
     71  CA        42.7370   73.6480   93.5480 C.3    21  SER21       0.1924
     72  C         42.1360   72.8720   92.3870 C.2    21  SER21       0.2314
     73  O         42.6350   72.9480   91.2660 O.2    21  SER21      -0.2863
     74  CB        43.7460   72.7820   94.3110 C.3    21  SER21       0.2116
     75  OG        43.1270   71.6840   94.9660 O.3    21  SER21      -0.2180
     76  N         41.2330   75.2280   89.8240 N.3    24  GLY24      -0.1225
     77  CA        42.3750   75.7300   89.0900 C.3    24  GLY24       0.1811
     78  C         42.7510   74.7120   88.0390 C.2    24  GLY24       0.2280
     79  O         43.1230   75.0650   86.9200 O.2    24  GLY24      -0.2866
     80  N         40.2510   74.7350   85.2060 N.3    27  LEU27      -0.1231
     81  CA        40.5270   75.8790   84.3420 C.3    27  LEU27       0.1693
     82  C         41.7140   75.6330   83.4150 C.2    27  LEU27       0.2591
     83  O         41.6680   76.0190   82.2430 O.2    27  LEU27      -0.2718
     84  CB        40.7780   77.1380   85.1760 C.3    27  LEU27       0.0284
     85  CG        41.0460   78.4360   84.4090 C.3    27  LEU27       0.0019
     86  CD1       39.8970   78.7080   83.4560 C.3    27  LEU27       0.0001
     87  CD2       41.2190   79.5850   85.3950 C.3    27  LEU27       0.0001
     88  N         42.7730   75.0090   83.9270 N.am   28  ILE28      -0.1980
     89  CA        43.9470   74.7330   83.1120 C.3    28  ILE28       0.1595
     90  C         43.6050   73.6700   82.0890 C.2    28  ILE28       0.2287
     91  O         44.0460   73.7370   80.9420 O.2    28  ILE28      -0.2864
     92  CB        45.1350   74.2770   83.9840 C.3    28  ILE28       0.0276
     93  CG1       45.6350   75.4620   84.8100 C.3    28  ILE28       0.0022
     94  CG2       46.2640   73.7420   83.1130 C.3    28  ILE28       0.0022
     95  CD1       46.6120   75.1050   85.9160 C.3    28  ILE28       0.0001
     96  N         41.4710   83.4820   84.5800 N.3   176  MET176     -0.1245
     97  CA        42.7100   83.0720   85.2320 C.3   176  MET176      0.1570
     98  C         43.3070   84.2360   86.0220 C.2   176  MET176      0.2261
     99  O         43.7620   84.0580   87.1540 O.2   176  MET176     -0.2867
    100  CB        43.7070   82.5710   84.1840 C.3   176  MET176      0.0387
    101  CG        45.0010   82.0090   84.7510 C.3   176  MET176      0.0595
    102  SD        45.9290   81.1150   83.4960 S.3   176  MET176     -0.1393
    103  CE        45.9690   82.3250   82.1760 C.3   176  MET176      0.0692
    104  N         41.2450   84.9490   89.0190 N.3   179  ALA179     -0.1231
    105  CA        41.4330   83.8830   89.9920 C.3   179  ALA179      0.1694
    106  C         42.6870   84.1400   90.8080 C.2   179  ALA179      0.2591
    107  O         42.7360   83.8290   92.0000 O.2   179  ALA179     -0.2718
    108  CB        41.5280   82.5410   89.2920 C.3   179  ALA179      0.0304
    109  N         43.7050   84.7130   90.1780 N.am  180  MET180     -0.1979
    110  CA        44.9410   85.0000   90.8860 C.3   180  MET180      0.1605
    111  C         44.7150   86.1200   91.8940 C.2   180  MET180      0.2287
    112  O         45.3740   86.1630   92.9330 O.2   180  MET180     -0.2864
    113  CB        46.0430   85.3650   89.8940 C.3   180  MET180      0.0413
    114  CG        46.4710   84.1710   89.0440 C.3   180  MET180      0.0598
    115  SD        47.8170   84.4890   87.8830 S.3   180  MET180     -0.1393
    116  CE        47.0460   85.6120   86.7680 C.3   180  MET180      0.0692
    117  N         43.0250   84.7020   94.9370 N.3   183  LEU183     -0.1245
    118  CA        44.0210   84.1200   95.8290 C.3   183  LEU183      0.1561
    119  C         44.8940   85.1240   96.5640 C.2   183  LEU183      0.2260
    120  O         45.3250   84.8620   97.6820 O.2   183  LEU183     -0.2867
    121  CB        44.9010   83.1440   95.0550 C.3   183  LEU183      0.0270
    122  CG        44.2410   81.7780   94.8760 C.3   183  LEU183      0.0019
    123  CD1       44.9980   80.9860   93.8410 C.3   183  LEU183      0.0001
    124  CD2       44.2070   81.0380   96.2090 C.3   183  LEU183      0.0001
    125  N         42.8760   86.1720   99.4540 N.3   186  LEU186     -0.1231
    126  CA        42.7680   85.1110  100.4460 C.3   186  LEU186      0.1693
    127  C         44.0460   84.9810  101.2630 C.2   186  LEU186      0.2592
    128  O         43.9880   84.7220  102.4620 O.2   186  LEU186     -0.2718
    129  CB        42.4680   83.7640   99.7890 C.3   186  LEU186      0.0284
    130  CG        42.3910   82.5850  100.7680 C.3   186  LEU186      0.0019
    131  CD1       41.1290   82.6980  101.6170 C.3   186  LEU186      0.0001
    132  CD2       42.4030   81.2730   99.9920 C.3   186  LEU186      0.0001
    133  N         45.2010   85.1620  100.6270 N.am  187  HIS187     -0.1976
    134  CA        46.4680   85.0460  101.3470 C.3   187  HIS187      0.1656
    135  C         46.6360   86.1070  102.4220 C.2   187  HIS187      0.2291
    136  O         47.3920   85.9270  103.3710 O.2   187  HIS187     -0.2864
    137  CB        47.6470   85.1030  100.3720 C.3   187  HIS187      0.0771
    138  CG        47.8250   83.8490   99.5750 C.ar  187  HIS187      0.0820
    139  ND1       48.9380   83.6030   98.7970 N.ar  187  HIS187     -0.2267
    140  CD2       47.0400   82.7560   99.4570 C.ar  187  HIS187      0.1154
    141  CE1       48.8280   82.4120   98.2410 C.ar  187  HIS187      0.1986
    142  NE2       47.6840   81.8750   98.6250 N.ar  187  HIS187     -0.2212
    143  N         43.3760   80.7970  105.1590 N.3   191  SER191     -0.1217
    144  CA        42.1180   80.0500  105.0690 C.3   191  SER191      0.1889
    145  C         41.2700   79.9700  106.3340 C.2   191  SER191      0.2288
    146  O         41.7810   80.0700  107.4520 O.2   191  SER191     -0.2866
    147  CB        42.3940   78.6190  104.6040 C.3   191  SER191      0.2089
    148  OG        42.9460   78.5950  103.2990 O.3   191  SER191     -0.2183
    149  N         52.0290   74.4450  104.1640 N.3   206  PHE206     -0.1241
    150  CA        51.2210   73.9820  103.0540 C.3   206  PHE206      0.1605
    151  C         51.8810   72.7380  102.4930 C.2   206  PHE206      0.2264
    152  O         51.2120   71.7570  102.1840 O.2   206  PHE206     -0.2867
    153  CB        51.1220   75.0340  101.9540 C.3   206  PHE206      0.0534
    154  CG        50.1140   74.6880  100.9050 C.ar  206  PHE206     -0.0203
    155  CD1       48.7660   74.9300  101.1130 C.ar  206  PHE206     -0.0042
    156  CD2       50.5080   74.0570   99.7310 C.ar  206  PHE206     -0.0042
    157  CE1       47.8350   74.5520  100.1780 C.ar  206  PHE206     -0.0003
    158  CE2       49.5670   73.6720   98.7840 C.ar  206  PHE206     -0.0003
    159  CZ        48.2370   73.9190   99.0070 C.ar  206  PHE206     -0.0000
    160  N         49.2450   69.8220  102.4260 N.3   210  TYR210     -0.1241
    161  CA        48.2000   70.0710  101.4400 C.3   210  TYR210      0.1605
    162  C         48.6370   69.9020   99.9830 C.2   210  TYR210      0.2264
    163  O         47.8010   69.8140   99.0800 O.2   210  TYR210     -0.2867
    164  CB        47.5650   71.4390  101.7170 C.3   210  TYR210      0.0534
    165  CG        46.8730   71.4300  103.0590 C.ar  210  TYR210     -0.0201
    166  CD1       45.7740   70.5950  103.2850 C.ar  210  TYR210     -0.0009
    167  CD2       47.3620   72.1720  104.1260 C.ar  210  TYR210     -0.0009
    168  CE1       45.1890   70.4930  104.5350 C.ar  210  TYR210      0.0417
    169  CE2       46.7840   72.0790  105.3900 C.ar  210  TYR210      0.0417
    170  CZ        45.6980   71.2360  105.5860 C.ar  210  TYR210      0.1957
    171  OH        45.1200   71.1240  106.8280 O.3   210  TYR210     -0.2866
    172  N         47.6490   66.3920   99.5820 N.3   213  LYS213     -0.1231
    173  CA        46.1950   66.2440   99.5620 C.3   213  LYS213      0.1693
    174  C         45.6620   66.7720   98.2340 C.2   213  LYS213      0.2592
    175  O         44.7600   66.1810   97.6440 O.2   213  LYS213     -0.2718
    176  CB        45.5420   66.9890  100.7450 C.3   213  LYS213      0.0285
    177  CG        45.4590   66.1820  102.0570 C.3   213  LYS213      0.0035
    178  CD        44.6550   66.8890  103.1670 C.3   213  LYS213      0.0206
    179  CE        43.1500   66.7550  102.9660 C.3   213  LYS213      0.1093
    180  NZ        42.3640   67.3340  104.0950 N.3   213  LYS213     -0.1314
    181  N         46.2240   67.8820   97.7610 N.am  214  ASP214     -0.1974
    182  CA        45.7990   68.4630   96.4950 C.3   214  ASP214      0.1709
    183  C         46.0590   67.5030   95.3320 C.2   214  ASP214      0.2293
    184  O         45.2470   67.4080   94.4040 O.2   214  ASP214     -0.2864
    185  CB        46.5120   69.7910   96.2310 C.3   214  ASP214      0.1436
    186  CG        45.8400   70.9690   96.9040 C.2   214  ASP214      0.3671
    187  OD1       44.9060   70.7500   97.7080 O.co2 214  ASP214     -0.2456
    188  OD2       46.2610   72.1140   96.6250 O.co2 214  ASP214     -0.2456
@<TRIPOS>BOND
     1    91    90    2
     2    90    89    1
     3   103   102    1
     4    83    82    2
     5    89    88    1
     6    89    92    1
     7    94    92    1
     8    82    88   am
     9    82    81    1
    10    86    85    1
    11   102   101    1
    12    92    93    1
    13   100   101    1
    14   100    97    1
    15    81    84    1
    16    81    80    1
    17    85    84    1
    18    85    87    1
    19    96    97    1
    20    93    95    1
    21    97    98    1
    22    98    99    2
    23   116   115    1
    24    79    78    2
    25   115   114    1
    26    78    77    1
    27   104   105    1
    28   114   113    1
    29    77    76    1
    30   108   105    1
    31   113   110    1
    32   105   106    1
    33   109   106   am
    34   109   110    1
    35   106   107    2
    36   110   111    1
    37    73    72    2
    38   111   112    2
    39    72    71    1
    40    69    68    2
    41    16    15   ar
    42    16    14   ar
    43    15    13   ar
    44    71    74    1
    45    71    70    1
    46   123   122    1
    47    68    70   am
    48    68    67    1
    49    74    75    1
    50   184   183    2
    51    14    12   ar
    52    13    11   ar
    53   122   121    1
    54   122   124    1
    55   117   118    1
    56   121   118    1
    57    67    66    1
    58   183   182    1
    59     5     2    1
    60    61    60    2
    61    12    11   ar
    62    11    10    1
    63   118   119    1
    64   185   182    1
    65   185   186    1
    66   182   181    1
    67   119   120    2
    68   188   186   ar
    69    60    59    1
    70   186   187   ar
    71    10     7    1
    72     2     3    1
    73     2     1    1
    74     4     3    2
    75     3     6   am
    76   175   174    2
    77   181   174   am
    78    65    63   am
    79    62    59    1
    80    62    63    1
    81     6     7    1
    82    59    58    1
    83   174   173    1
    84   141   142   ar
    85   141   139   ar
    86     7     8    1
    87    63    64    2
    88   142   140   ar
    89   158   159   ar
    90   158   156   ar
    91   139   138   ar
    92   159   157   ar
    93   163   162    2
    94    58    46   am
    95    47    46    2
    96   125   126    1
    97   140   138   ar
    98     8     9    2
    99   173   172    1
   100   173   176    1
   101   138   137    1
   102    46    45    1
   103   156   154   ar
   104   129   126    1
   105   129   130    1
   106   162   161    1
   107   132   130    1
   108   157   155   ar
   109   137   134    1
   110   126   127    1
   111   133   127   am
   112   133   134    1
   113   176   177    1
   114   130   131    1
   115   154   155   ar
   116   154   153    1
   117    45    44    1
   118    45    48    1
   119   127   128    2
   120   134   135    1
   121   161   164    1
   122   161   160    1
   123    24    22    1
   124    22    21    1
   125    22    23    1
   126   164   165    1
   127   153   150    1
   128   177   178    1
   129    48    49    1
   130   152   151    2
   131    21    18    1
   132   135   136    2
   133   151   150    1
   134   179   178    1
   135   179   180    1
   136    49    50   ar
   137    49    51   ar
   138   150   149    1
   139   165   166   ar
   140   165   167   ar
   141    50    52   ar
   142    17    18    1
   143    41    40    2
   144   166   168   ar
   145   148   147    1
   146    18    19    1
   147    40    39    1
   148    51    54   ar
   149    51    53   ar
   150    52    53   ar
   151   167   169   ar
   152    54    56   ar
   153    53    55   ar
   154   168   170   ar
   155   147   144    1
   156    37    35    1
   157    19    20    2
   158   144   143    1
   159   144   145    1
   160    43    42    1
   161    56    57   ar
   162    39    42    1
   163    39    38    1
   164   169   170   ar
   165    55    57   ar
   166    29    26    1
   167    35    34    1
   168   170   171    1
   169    34    36    1
   170    34    31    1
   171    38    32   am
   172    33    32    2
   173    32    31    1
   174   145   146    2
   175    26    25    1
   176    26    27    1
   177    31    30    1
   178    27    28    2
