@<TRIPOS>MOLECULE
tmp/1ppkA00.pdb
 217 202 0 0 0
SMALL
GASTEIGER

@<TRIPOS>ATOM
      1  N         16.1090    5.9030   11.2420 N.3    15  GLU15      -0.1231
      2  CA        16.5760    5.6720   12.6250 C.3    15  GLU15       0.1699
      3  C         17.8390    6.5340   12.8650 C.2    15  GLU15       0.2592
      4  O         18.0370    7.0520   14.0030 O.2    15  GLU15      -0.2718
      5  CB        16.9610    4.2230   12.7540 C.3    15  GLU15       0.0402
      6  CG        17.1790    4.0130   14.2990 C.3    15  GLU15       0.1161
      7  CD        17.4390    2.5210   14.4760 C.2    15  GLU15       0.3649
      8  OE1       17.5310    1.7590   13.5610 O.co2  15  GLU15      -0.2457
      9  OE2       17.4930    2.2500   15.6830 O.co2  15  GLU15      -0.2457
     10  N         18.6320    6.6230   11.7980 N.am   16  GLU16      -0.1979
     11  CA        19.8240    7.5120   11.8660 C.3    16  GLU16       0.1602
     12  C         20.1350    8.0430   10.4860 C.2    16  GLU16       0.2287
     13  O         19.5740    7.6060    9.4810 O.2    16  GLU16      -0.2864
     14  CB        21.0580    6.8870   12.5020 C.3    16  GLU16       0.0415
     15  CG        21.5810    5.6870   11.7930 C.3    16  GLU16       0.1163
     16  CD        22.4960    4.8790   12.7130 C.2    16  GLU16       0.3649
     17  OE1       23.6020    4.8200   12.2560 O.co2  16  GLU16      -0.2457
     18  OE2       22.1320    4.4860   13.8350 O.co2  16  GLU16      -0.2457
     19  N         27.7790    9.0760   11.4440 N.3    31  ASN31      -0.1296
     20  CA        26.4880    9.6480   11.9330 C.3    31  ASN31       0.1339
     21  C         26.8780   11.0390   12.4460 C.3    31  ASN31       0.2014
     22  O         27.6360   11.0830   13.4970 O.3    31  ASN31      -0.2188
     23  CB        26.0500    8.6390   13.0010 C.3    31  ASN31       0.1102
     24  CG        24.7040    8.9310   13.6490 C.2    31  ASN31       0.2623
     25  OD1       24.1070    8.1310   14.4250 O.2    31  ASN31      -0.2716
     26  ND2       24.2500   10.1450   13.4160 N.am   31  ASN31      -0.0877
     27  N         26.3950   14.0800   14.6800 N.3    33  ASP33      -0.1239
     28  CA        25.6270   14.2200   15.8980 C.3    33  ASP33       0.1674
     29  C         25.8230   15.5520   16.5890 C.2    33  ASP33       0.2266
     30  O         26.8860   15.7640   17.2250 O.2    33  ASP33      -0.2867
     31  CB        26.1530   13.0180   16.7650 C.3    33  ASP33       0.1410
     32  CG        25.4700   13.0730   18.0910 C.2    33  ASP33       0.3668
     33  OD1       25.9410   12.3990   19.0440 O.co2  33  ASP33      -0.2456
     34  OD2       24.4320   13.7480   18.3550 O.co2  33  ASP33      -0.2456
     35  N         24.6360   16.4000   19.2310 N.3    35  GLY35      -0.1210
     36  CA        24.5370   16.2020   20.6950 C.3    35  GLY35       0.1956
     37  C         25.8410   15.7780   21.3960 C.2    35  GLY35       0.2609
     38  O         25.8290   15.6430   22.6490 O.2    35  GLY35      -0.2717
     39  N         26.8790   15.5500   20.5950 N.am   36  SER36      -0.2005
     40  CA        28.1910   15.1360   21.2890 C.3    36  SER36       0.1610
     41  C         29.2980   15.8070   20.5160 C.3    36  SER36       0.2063
     42  O         29.1730   16.3470   19.3560 O.3    36  SER36      -0.2184
     43  CB        28.1990   13.5980   21.3850 C.3    36  SER36       0.2063
     44  OG        28.4970   13.1540   19.9720 O.3    36  SER36      -0.2184
     45  N         33.6380    7.5460   25.7320 N.3    73  ILE73      -0.1231
     46  CA        32.3370    8.2820   25.7100 C.3    73  ILE73       0.1692
     47  C         31.1840    7.3330   25.9680 C.2    73  ILE73       0.2593
     48  O         31.2980    6.1370   25.6160 O.2    73  ILE73      -0.2718
     49  CB        32.2040    9.0210   24.2940 C.3    73  ILE73       0.0266
     50  CG1       30.9600    9.9800   24.4380 C.3    73  ILE73       0.0019
     51  CG2       32.1610    8.0360   23.1430 C.3    73  ILE73       0.0020
     52  CD1       31.1370   11.1310   23.3550 C.3    73  ILE73       0.0001
     53  N         30.2170    7.9090   26.6380 N.am   74  SER74      -0.1938
     54  CA        28.9870    7.1200   26.9270 C.3    74  SER74       0.2055
     55  C         27.7640    7.9880   26.4940 C.2    74  SER74       0.2643
     56  O         27.7250    9.2420   26.7340 O.2    74  SER74      -0.2714
     57  CB        29.0980    6.5670   28.3360 C.3    74  SER74       0.2130
     58  OG        28.1910    7.1860   29.2110 O.3    74  SER74      -0.2179
     59  N         26.8050    7.3110   25.8420 N.am   75  TYR75      -0.1959
     60  CA        25.6400    8.0630   25.3490 C.3    75  TYR75       0.1771
     61  C         24.4300    7.8030   26.2290 C.2    75  TYR75       0.2620
     62  O         24.3230    6.8630   27.0500 O.2    75  TYR75      -0.2715
     63  CB        25.3760    7.6570   23.8810 C.3    75  TYR75       0.0574
     64  CG        26.5740    7.9790   23.0170 C.ar   75  TYR75      -0.0198
     65  CD1       27.5390    6.9950   22.7030 C.ar   75  TYR75      -0.0009
     66  CD2       26.7580    9.2680   22.5560 C.ar   75  TYR75      -0.0009
     67  CE1       28.6460    7.3060   21.9200 C.ar   75  TYR75       0.0417
     68  CE2       27.8790    9.6140   21.7310 C.ar   75  TYR75       0.0417
     69  CZ        28.7810    8.6040   21.4110 C.ar   75  TYR75       0.1957
     70  OH        29.8150    8.9730   20.5880 O.3    75  TYR75      -0.2866
     71  N         23.3780    8.5740   25.8970 N.am   76  GLY76      -0.1940
     72  CA        22.0730    8.4980   26.5700 C.3    76  GLY76       0.2014
     73  C         21.3290    7.1600   26.4920 C.2    76  GLY76       0.2638
     74  O         20.5460    6.8260   27.4590 O.2    76  GLY76      -0.2714
     75  N         21.5570    6.4000   25.4130 N.am   77  ASP77      -0.1971
     76  CA        20.8710    5.0780   25.3330 C.3    77  ASP77       0.1709
     77  C         21.7560    3.9880   25.9930 C.2    77  ASP77       0.2293
     78  O         21.4910    2.8100   25.7800 O.2    77  ASP77      -0.2864
     79  CB        20.4570    4.7740   23.8830 C.3    77  ASP77       0.1436
     80  CG        21.6720    4.7640   22.9840 C.2    77  ASP77       0.3671
     81  OD1       21.4610    4.8630   21.7560 O.co2  77  ASP77      -0.2456
     82  OD2       22.8610    4.7620   23.4710 O.co2  77  ASP77      -0.2456
     83  N         24.9990    3.2700   25.2370 N.3    79  SER79      -0.1217
     84  CA        26.0660    2.7680   24.3690 C.3    79  SER79       0.1889
     85  C         27.3640    3.5380   24.7590 C.2    79  SER79       0.2288
     86  O         27.3000    4.6040   25.4010 O.2    79  SER79      -0.2866
     87  CB        25.6210    2.9020   22.9050 C.3    79  SER79       0.2089
     88  OG        25.3810    4.2880   22.6570 O.3    79  SER79      -0.2183
     89  N         26.8930   -0.6590   19.1830 N.3   112  PHE112     -0.1241
     90  CA        27.6700   -0.2740   17.9880 C.3   112  PHE112      0.1605
     91  C         28.0950   -1.5280   17.1930 C.2   112  PHE112      0.2264
     92  O         28.1820   -1.4610   15.9540 O.2   112  PHE112     -0.2867
     93  CB        28.8600    0.5840   18.4180 C.3   112  PHE112      0.0534
     94  CG        28.3980    1.9230   18.9180 C.ar  112  PHE112     -0.0203
     95  CD1       28.6580    2.2810   20.2440 C.ar  112  PHE112     -0.0042
     96  CD2       27.7040    2.7800   18.0580 C.ar  112  PHE112     -0.0042
     97  CE1       28.2190    3.5160   20.7570 C.ar  112  PHE112     -0.0003
     98  CE2       27.2820    4.0400   18.5510 C.ar  112  PHE112     -0.0003
     99  CZ        27.5350    4.3940   19.8920 C.ar  112  PHE112     -0.0000
    100  N         25.2270   -2.3660   14.9230 N.3   115  ASP115     -0.1239
    101  CA        24.8790   -1.4070   13.8860 C.3   115  ASP115      0.1674
    102  C         25.8240   -1.3380   12.7330 C.2   115  ASP115      0.2266
    103  O         26.8570   -0.6520   12.8650 O.2   115  ASP115     -0.2867
    104  CB        24.7520   -0.0650   14.6670 C.3   115  ASP115      0.1410
    105  CG        24.1970    1.0260   13.7360 C.2   115  ASP115      0.3668
    106  OD1       24.0890    0.8560   12.5260 O.co2 115  ASP115     -0.2456
    107  OD2       23.8130    2.0500   14.3320 O.co2 115  ASP115     -0.2456
    108  N         30.9380    8.2600   14.6070 N.3   121  LEU121     -0.1245
    109  CA        30.2120    9.5180   14.8190 C.3   121  LEU121      0.1561
    110  C         31.0920   10.7360   14.5510 C.2   121  LEU121      0.2260
    111  O         32.2910   10.6370   14.7860 O.2   121  LEU121     -0.2867
    112  CB        29.7260    9.4370   16.2760 C.3   121  LEU121      0.0270
    113  CG        28.2580    8.9680   16.4220 C.3   121  LEU121      0.0019
    114  CD1       28.1260    7.4600   16.2990 C.3   121  LEU121      0.0001
    115  CD2       27.7850    9.4710   17.7760 C.3   121  LEU121      0.0001
    116  N         32.7070   19.8090   25.5350 N.3   129  ILE129     -0.1245
    117  CA        32.4070   18.4810   26.0320 C.3   129  ILE129      0.1561
    118  C         33.1100   17.3660   25.2700 C.2   129  ILE129      0.2260
    119  O         32.6820   16.2110   25.4530 O.2   129  ILE129     -0.2867
    120  CB        30.8590   18.3070   26.1470 C.3   129  ILE129      0.0252
    121  CG1       30.1730   18.4550   24.7390 C.3   129  ILE129      0.0019
    122  CG2       30.3100   19.3640   27.1620 C.3   129  ILE129      0.0019
    123  CD1       28.7070   17.8480   24.8730 C.3   129  ILE129      0.0001
    124  N         25.8550   21.9790   24.8250 N.3   190  PHE190     -0.1241
    125  CA        24.8330   21.5910   23.7540 C.3   190  PHE190      0.1605
    126  C         24.3400   22.8370   23.0350 C.2   190  PHE190      0.2264
    127  O         24.4590   23.9380   23.5270 O.2   190  PHE190     -0.2867
    128  CB        23.6250   20.8880   24.4140 C.3   190  PHE190      0.0534
    129  CG        23.9240   19.6270   25.2220 C.ar  190  PHE190     -0.0203
    130  CD1       24.4800   18.5130   24.5210 C.ar  190  PHE190     -0.0042
    131  CD2       23.6560   19.5610   26.5780 C.ar  190  PHE190     -0.0042
    132  CE1       24.7520   17.3470   25.2380 C.ar  190  PHE190     -0.0003
    133  CE2       23.9330   18.3480   27.2670 C.ar  190  PHE190     -0.0003
    134  CZ        24.4910   17.2630   26.6110 C.ar  190  PHE190     -0.0000
    135  N         17.4540   20.5400   23.6440 N.3   211  ILE211     -0.1301
    136  CA        18.6380   20.6270   22.7640 C.3   211  ILE211      0.1246
    137  C         18.3270   20.1260   21.3710 C.3   211  ILE211      0.2009
    138  O         17.5640   19.0990   21.2210 O.3   211  ILE211     -0.2188
    139  CB        19.7780   19.8140   23.4630 C.3   211  ILE211      0.0202
    140  CG1       19.5190   18.2990   23.4430 C.3   211  ILE211      0.0015
    141  CG2       19.9640   20.3290   24.9090 C.3   211  ILE211      0.0016
    142  CD1       20.7950   17.4600   23.7940 C.3   211  ILE211      0.0000
    143  N         19.3640   17.9990   18.5910 N.3   213  ASP213     -0.1239
    144  CA        20.2600   16.7930   18.5810 C.3   213  ASP213      0.1674
    145  C         19.9810   15.8360   17.4180 C.2   213  ASP213      0.2266
    146  O         19.0890   14.9820   17.4980 O.2   213  ASP213     -0.2867
    147  CB        19.9050   16.1760   19.9810 C.3   213  ASP213      0.1410
    148  CG        20.8200   14.9860   20.2340 C.2   213  ASP213      0.3668
    149  OD1       21.6610   14.5820   19.4060 O.co2 213  ASP213     -0.2456
    150  OD2       20.7330   14.4840   21.3660 O.co2 213  ASP213     -0.2456
    151  N         21.7100   13.3690   16.5590 N.3   215  GLY215     -0.1210
    152  CA        22.0060   12.0050   16.9220 C.3   215  GLY215      0.1956
    153  C         20.9460   11.2430   17.6400 C.2   215  GLY215      0.2613
    154  O         21.1920   10.0260   17.9800 O.2   215  GLY215     -0.2717
    155  N         19.7840   11.8180   17.9480 N.am  216  THR216     -0.1938
    156  CA        18.6890   11.1360   18.6400 C.3   216  THR216      0.2028
    157  C         17.5180   10.9930   17.5810 C.2   216  THR216      0.2643
    158  O         17.1380   11.9680   16.9340 O.2   216  THR216     -0.2714
    159  CB        18.1450   11.9300   19.8880 C.3   216  THR216      0.1808
    160  OG1       19.2580   11.7340   20.8090 O.3   216  THR216     -0.2208
    161  CG2       16.8510   11.4380   20.5290 C.3   216  THR216      0.0379
    162  N         17.0380    9.7830   17.5290 N.am  217  THR217     -0.1936
    163  CA        15.9730    9.4430   16.5710 C.3   217  THR217      0.2028
    164  C         14.6360   10.2000   16.8370 C.2   217  THR217      0.2642
    165  O         14.0700   10.7030   15.8520 O.2   217  THR217     -0.2714
    166  CB        15.6640    7.8980   16.5700 C.3   217  THR217      0.1808
    167  OG1       16.9090    7.1850   16.4030 O.3   217  THR217     -0.2208
    168  CG2       14.6590    7.5470   15.3860 C.3   217  THR217      0.0379
    169  N         14.2250   10.2310   18.0800 N.am  218  LEU218     -0.1977
    170  CA        12.8530   10.7370   18.3970 C.3   218  LEU218      0.1596
    171  C         12.8220   12.0640   19.0710 C.2   218  LEU218      0.2287
    172  O         13.8990   12.6390   19.1910 O.2   218  LEU218     -0.2864
    173  CB        12.1870    9.6170   19.2650 C.3   218  LEU218      0.0297
    174  CG        12.2000    8.1960   18.6870 C.3   218  LEU218      0.0022
    175  CD1       11.6010    7.2410   19.7340 C.3   218  LEU218      0.0001
    176  CD2       11.3850    8.1020   17.3780 C.3   218  LEU218      0.0001
    177  N         12.0100   13.6660   22.4530 N.3   220  LEU220     -0.1245
    178  CA        11.8920   13.1440   23.8190 C.3   220  LEU220      0.1561
    179  C         11.4710   14.2890   24.7060 C.2   220  LEU220      0.2260
    180  O         12.2670   15.2520   24.8220 O.2   220  LEU220     -0.2867
    181  CB        13.2620   12.4990   24.2720 C.3   220  LEU220      0.0270
    182  CG        13.7760   11.3570   23.3640 C.3   220  LEU220      0.0019
    183  CD1       15.0980   10.7700   23.8810 C.3   220  LEU220      0.0001
    184  CD2       12.6260   10.3060   23.3180 C.3   220  LEU220      0.0001
    185  N          8.3120   -2.4540   21.8530 N.3   242  ALA242     -0.1245
    186  CA         8.5020   -1.4470   20.7920 C.3   242  ALA242      0.1562
    187  C          9.3440   -0.3170   21.3530 C.2   242  ALA242      0.2260
    188  O         10.1020    0.3480   20.5940 O.2   242  ALA242     -0.2867
    189  CB         7.1460   -1.0810   20.2220 C.3   242  ALA242      0.0290
    190  N          6.4250    7.2660   13.4550 N.3   274  TYR274     -0.1241
    191  CA         7.8360    6.8940   13.1680 C.3   274  TYR274      0.1605
    192  C          7.9620    5.7490   12.1660 C.2   274  TYR274      0.2264
    193  O          8.7720    5.6880   11.2210 O.2   274  TYR274     -0.2867
    194  CB         8.4980    6.6030   14.5590 C.3   274  TYR274      0.0534
    195  CG         9.8600    5.9520   14.3580 C.ar  274  TYR274     -0.0201
    196  CD1       10.8980    6.7440   13.8650 C.ar  274  TYR274     -0.0009
    197  CD2       10.0710    4.6220   14.6290 C.ar  274  TYR274     -0.0009
    198  CE1       12.1910    6.1880   13.6860 C.ar  274  TYR274      0.0417
    199  CE2       11.3290    4.0100   14.4470 C.ar  274  TYR274      0.0417
    200  CZ        12.3690    4.8440   14.0030 C.ar  274  TYR274      0.1957
    201  OH        13.5920    4.2970   13.7960 O.3   274  TYR274     -0.2866
    202  N          5.2500    2.9690   16.0090 N.3   284  LEU284     -0.1245
    203  CA         5.8020    3.6390   17.1980 C.3   284  LEU284      0.1561
    204  C          5.6080    5.1630   17.0140 C.2   284  LEU284      0.2260
    205  O          5.8410    5.6440   15.9180 O.2   284  LEU284     -0.2867
    206  CB         7.3380    3.2210   17.1970 C.3   284  LEU284      0.0270
    207  CG         8.0990    3.8130   18.4550 C.3   284  LEU284      0.0019
    208  CD1        7.6950    3.2540   19.7760 C.3   284  LEU284      0.0001
    209  CD2        9.6000    3.6570   18.2140 C.3   284  LEU284      0.0001
    210  N         14.7010   16.6160   24.2940 N.3   297  ILE297     -0.1301
    211  CA        15.6830   16.2970   23.1990 C.3   297  ILE297      0.1246
    212  C         14.9050   16.4630   21.8860 C.3   297  ILE297      0.2009
    213  O         14.0330   15.5880   21.6880 O.3   297  ILE297     -0.2188
    214  CB        16.3750   14.9380   23.3460 C.3   297  ILE297      0.0202
    215  CG1       17.1590   14.9430   24.7170 C.3   297  ILE297      0.0015
    216  CG2       17.3760   14.6370   22.1890 C.3   297  ILE297      0.0016
    217  CD1       17.5740   13.5040   25.0950 C.3   297  ILE297      0.0000
@<TRIPOS>BOND
     1    13    12    2
     2    12    11    1
     3   193   192    2
     4     1     2    1
     5    19    20    1
     6    15    14    1
     7    15    16    1
     8    10    11    1
     9    10     3   am
    10    11    14    1
    11    20    21    1
    12    20    23    1
    13   192   191    1
    14    17    16   ar
    15    21    22    1
    16   106   105   ar
    17     2     5    1
    18     2     3    1
    19    16    18   ar
    20   102   103    2
    21   102   101    1
    22     5     6    1
    23     3     4    2
    24    23    24    1
    25   191   190    1
    26   191   194    1
    27    26    24   am
    28     8     7   ar
    29    24    25    2
    30   198   196   ar
    31   198   200   ar
    32   105   107   ar
    33   105   104    1
    34   201   200    1
    35   196   195   ar
    36   101   104    1
    37   101   100    1
    38   200   199   ar
    39     6     7    1
    40   195   194    1
    41   195   197   ar
    42   199   197   ar
    43     7     9   ar
    44   110   111    2
    45   110   109    1
    46   108   109    1
    47    27    28    1
    48   109   112    1
    49   168   166    1
    50   165   164    2
    51    28    29    1
    52    28    31    1
    53   205   204    2
    54    92    91    2
    55   202   203    1
    56   112   113    1
    57   114   113    1
    58   167   166    1
    59   113   115    1
    60   151   152    1
    61   166   163    1
    62   163   164    1
    63   163   162    1
    64    29    30    2
    65    31    32    1
    66   164   169   am
    67   152   153    1
    68   158   157    2
    69   204   203    1
    70    91    90    1
    71   206   203    1
    72   206   207    1
    73   176   174    1
    74   145   146    2
    75   145   144    1
    76   162   157   am
    77   157   156    1
    78   153   155   am
    79   153   154    2
    80   155   156    1
    81    90    93    1
    82    90    89    1
    83    96    98   ar
    84    96    94   ar
    85   169   170    1
    86    32    34   ar
    87    32    33   ar
    88   209   207    1
    89   170   171    1
    90   170   173    1
    91    93    94    1
    92   207   208    1
    93    98    99   ar
    94   144   143    1
    95   144   147    1
    96   156   159    1
    97   174   173    1
    98   174   175    1
    99    94    95   ar
   100   171   172    2
   101    35    36    1
   102    42    41    1
   103   149   148   ar
   104   159   161    1
   105   159   160    1
   106    99    97   ar
   107    44    43    1
   108   147   148    1
   109   189   186    1
   110   148   150   ar
   111    95    97   ar
   112    41    40    1
   113    70    69    1
   114   188   187    2
   115    39    40    1
   116    39    37   am
   117    36    37    1
   118   186   187    1
   119   186   185    1
   120   138   137    1
   121    40    43    1
   122   137   136    1
   123    37    38    2
   124    69    68   ar
   125    69    67   ar
   126   213   212    1
   127    68    66   ar
   128    81    80   ar
   129   212   211    1
   130    67    65   ar
   131   216   214    1
   132   177   178    1
   133    66    64   ar
   134    88    87    1
   135    65    64   ar
   136   136   139    1
   137   136   135    1
   138    87    84    1
   139    80    82   ar
   140    80    79    1
   141    64    63    1
   142   126   127    2
   143   126   125    1
   144    51    49    1
   145   211   214    1
   146   211   210    1
   147   184   182    1
   148   214   215    1
   149    52    50    1
   150   182   183    1
   151   182   181    1
   152   140   139    1
   153   140   142    1
   154   139   141    1
   155   125   128    1
   156   125   124    1
   157   178   181    1
   158   178   179    1
   159    63    60    1
   160    79    76    1
   161    49    50    1
   162    49    46    1
   163    84    85    1
   164    84    83    1
   165   128   129    1
   166   130   129   ar
   167   130   132   ar
   168   179   180    2
   169   215   217    1
   170   121   123    1
   171   121   120    1
   172    85    86    2
   173   129   131   ar
   174   132   134   ar
   175   118   119    2
   176   118   117    1
   177    76    75    1
   178    76    77    1
   179    60    59    1
   180    60    61    1
   181    75    73   am
   182   116   117    1
   183    48    47    2
   184    46    45    1
   185    46    47    1
   186    78    77    2
   187    59    55   am
   188    71    61   am
   189    71    72    1
   190    47    53   am
   191   117   120    1
   192   120   122    1
   193    61    62    2
   194    73    72    1
   195    73    74    2
   196    55    56    2
   197    55    54    1
   198   131   133   ar
   199   134   133   ar
   200    53    54    1
   201    54    57    1
   202    57    58    1
