@<TRIPOS>MOLECULE
tmp/1pprB01.pdb
 158 149 0 0 0
SMALL
GASTEIGER

@<TRIPOS>ATOM
      1  N         71.5340   89.4480   16.0290 N.3    28  PHE28      -0.1227
      2  CA        72.9940   89.4550   15.9780 C.3    28  PHE28       0.1736
      3  C         73.6180   88.0720   15.7020 C.2    28  PHE28       0.2595
      4  O         74.8300   87.9750   15.4330 O.2    28  PHE28      -0.2718
      5  CB        73.5590   90.0600   17.2500 C.3    28  PHE28       0.0547
      6  CG        73.0220   91.4280   17.5450 C.ar   28  PHE28      -0.0202
      7  CD1       73.0770   92.4350   16.5730 C.ar   28  PHE28      -0.0042
      8  CD2       72.4550   91.7090   18.7800 C.ar   28  PHE28      -0.0042
      9  CE1       72.5670   93.7190   16.8210 C.ar   28  PHE28      -0.0003
     10  CE2       71.9400   92.9890   19.0520 C.ar   28  PHE28      -0.0003
     11  CZ        71.9960   93.9990   18.0640 C.ar   28  PHE28      -0.0000
     12  N         72.8170   87.0060   15.8130 N.am   29  LEU29      -0.1980
     13  CA        73.3120   85.6610   15.4940 C.3    29  LEU29       0.1596
     14  C         73.3040   85.4790   13.9470 C.2    29  LEU29       0.2287
     15  O         74.0340   84.6380   13.4010 O.2    29  LEU29      -0.2864
     16  CB        72.4070   84.5810   16.1500 C.3    29  LEU29       0.0297
     17  CG        72.7250   83.1030   15.8540 C.3    29  LEU29       0.0022
     18  CD1       74.1650   82.7480   16.3010 C.3    29  LEU29       0.0001
     19  CD2       71.6670   82.1830   16.5250 C.3    29  LEU29       0.0001
     20  N         73.8540   76.4510   10.9170 N.3   191  TYR191     -0.1241
     21  CA        74.6990   76.8150   12.0540 C.3   191  TYR191      0.1605
     22  C         74.2720   78.0930   12.7280 C.2   191  TYR191      0.2264
     23  O         74.7090   78.3630   13.8480 O.2   191  TYR191     -0.2867
     24  CB        76.1790   76.8600   11.6430 C.3   191  TYR191      0.0534
     25  CG        76.5600   75.6220   10.8680 C.ar  191  TYR191     -0.0201
     26  CD1       76.4930   74.3580   11.4700 C.ar  191  TYR191     -0.0009
     27  CD2       76.8620   75.6900    9.5050 C.ar  191  TYR191     -0.0009
     28  CE1       76.7060   73.1920   10.7300 C.ar  191  TYR191      0.0417
     29  CE2       77.0760   74.5270    8.7480 C.ar  191  TYR191      0.0417
     30  CZ        76.9960   73.2820    9.3660 C.ar  191  TYR191      0.1957
     31  OH        77.2170   72.1300    8.6350 O.3   191  TYR191     -0.2866
     32  N         69.5360   78.1230   19.5080 N.3   195  LEU195     -0.1245
     33  CA        69.4290   76.9720   20.4130 C.3   195  LEU195      0.1561
     34  C         68.0260   76.9860   21.0230 C.2   195  LEU195      0.2260
     35  O         67.6400   77.9600   21.6820 O.2   195  LEU195     -0.2867
     36  CB        70.4700   77.0950   21.5220 C.3   195  LEU195      0.0270
     37  CG        71.9280   77.1270   21.0230 C.3   195  LEU195      0.0019
     38  CD1       72.8460   77.4670   22.1990 C.3   195  LEU195      0.0001
     39  CD2       72.3280   75.7910   20.4070 C.3   195  LEU195      0.0001
     40  N         79.1870   81.1130   26.8660 N.3   207  ILE207     -0.1245
     41  CA        80.2760   81.7380   26.1240 C.3   207  ILE207      0.1561
     42  C         81.3380   82.3140   27.1160 C.2   207  ILE207      0.2260
     43  O         82.5550   82.2850   26.8460 O.2   207  ILE207     -0.2867
     44  CB        79.7060   82.7920   25.1550 C.3   207  ILE207      0.0252
     45  CG1       79.1080   82.0470   23.9430 C.3   207  ILE207      0.0019
     46  CG2       80.7610   83.8520   24.7410 C.3   207  ILE207      0.0019
     47  CD1       78.3300   82.9180   23.0580 C.3   207  ILE207      0.0001
     48  N         84.1200   79.9680   27.7940 N.3   210  MET210     -0.1245
     49  CA        85.0960   79.8950   26.7110 C.3   210  MET210      0.1570
     50  C         86.0510   81.0900   26.7340 C.2   210  MET210      0.2261
     51  O         87.2470   80.9300   26.4590 O.2   210  MET210     -0.2867
     52  CB        84.4120   79.7560   25.3350 C.3   210  MET210      0.0387
     53  CG        83.7430   78.3770   25.1870 C.3   210  MET210      0.0595
     54  SD        83.0430   78.0100   23.5590 S.3   210  MET210     -0.1393
     55  CE        81.5300   78.7980   23.7060 C.3   210  MET210      0.0692
     56  N         83.8310   74.4950   30.3460 N.3   269  VAL269     -0.1231
     57  CA        83.2780   74.8150   29.0230 C.3   269  VAL269      0.1692
     58  C         82.2880   73.7100   28.6280 C.2   269  VAL269      0.2592
     59  O         81.1420   73.9920   28.3030 O.2   269  VAL269     -0.2718
     60  CB        84.3630   74.9060   27.9190 C.3   269  VAL269      0.0266
     61  CG1       83.6800   75.0330   26.5340 C.3   269  VAL269      0.0020
     62  CG2       85.2520   76.1350   28.1360 C.3   269  VAL269      0.0020
     63  N         82.7250   72.4500   28.7020 N.am  270  TYR270     -0.1976
     64  CA        81.8630   71.3350   28.3100 C.3   270  TYR270      0.1639
     65  C         80.5400   71.2940   29.1090 C.2   270  TYR270      0.2290
     66  O         79.4760   71.1600   28.5360 O.2   270  TYR270     -0.2864
     67  CB        82.6230   70.0050   28.4290 C.3   270  TYR270      0.0560
     68  CG        81.7890   68.8070   28.0750 C.ar  270  TYR270     -0.0198
     69  CD1       81.5980   68.4390   26.7290 C.ar  270  TYR270     -0.0009
     70  CD2       81.1320   68.0710   29.0750 C.ar  270  TYR270     -0.0009
     71  CE1       80.7700   67.3620   26.3850 C.ar  270  TYR270      0.0417
     72  CE2       80.2860   66.9950   28.7490 C.ar  270  TYR270      0.0417
     73  CZ        80.1190   66.6500   27.4010 C.ar  270  TYR270      0.1957
     74  OH        79.3160   65.5700   27.0770 O.3   270  TYR270     -0.2866
     75  N         78.2240   74.1460   28.0060 N.3   273  MET273     -0.1230
     76  CA        77.6520   73.8750   26.6880 C.3   273  MET273      0.1702
     77  C         76.6310   72.7540   26.7780 C.2   273  MET273      0.2592
     78  O         75.6170   72.8000   26.0760 O.2   273  MET273     -0.2718
     79  CB        78.7250   73.4910   25.6490 C.3   273  MET273      0.0401
     80  CG        79.6190   74.6300   25.1580 C.3   273  MET273      0.0596
     81  SD        78.6550   76.0010   24.4940 S.3   273  MET273     -0.1393
     82  CE        77.8910   75.2550   23.0600 C.3   273  MET273      0.0692
     83  N         76.9030   71.7230   27.5870 N.am  274  ALA274     -0.1980
     84  CA        75.9390   70.6230   27.7290 C.3   274  ALA274      0.1597
     85  C         74.6080   71.1640   28.2560 C.2   274  ALA274      0.2287
     86  O         73.5390   70.6760   27.8680 O.2   274  ALA274     -0.2864
     87  CB        76.4600   69.5260   28.6620 C.3   274  ALA274      0.0319
     88  N         72.7670   72.8740   25.0390 N.3   277  THR277     -0.1218
     89  CA        72.6520   72.2020   23.7450 C.3   277  THR277      0.1862
     90  C         71.5820   71.1350   23.7420 C.2   277  THR277      0.2287
     91  O         71.7420   70.0830   24.3620 O.2   277  THR277     -0.2866
     92  CB        74.0290   71.5970   23.3170 C.3   277  THR277      0.1770
     93  OG1       75.0200   72.6430   23.3260 O.3   277  THR277     -0.2211
     94  CG2       73.9540   70.9920   21.8960 C.3   277  THR277      0.0375
     95  N         69.4410   67.9800   22.9460 N.3   279  THR279     -0.1218
     96  CA        69.9010   66.6730   22.4600 C.3   279  THR279      0.1862
     97  C         69.5490   66.3890   20.9910 C.2   279  THR279      0.2287
     98  O         70.1280   65.4950   20.3930 O.2   279  THR279     -0.2866
     99  CB        69.3850   65.4810   23.3480 C.3   279  THR279      0.1770
    100  OG1       67.9510   65.5190   23.4170 O.3   279  THR279     -0.2211
    101  CG2       69.9440   65.5750   24.7820 C.3   279  THR279      0.0375
    102  N         70.1240   68.4610   18.5320 N.3   281  ILE281     -0.1231
    103  CA        71.1250   69.1010   17.6670 C.3   281  ILE281      0.1678
    104  C         72.2050   68.1190   17.1730 C.2   281  ILE281      0.2434
    105  O         72.4730   68.0460   15.9650 O.2   281  ILE281     -0.2733
    106  CB        71.6800   70.4120   18.3100 C.3   281  ILE281      0.0265
    107  CG1       70.5660   71.4770   18.2800 C.3   281  ILE281      0.0019
    108  CG2       72.9590   70.9080   17.5860 C.3   281  ILE281      0.0020
    109  CD1       70.8930   72.7390   19.0710 C.3   281  ILE281      0.0001
    110  N         72.8420   67.3480   18.0780 N.am  282  PRO282     -0.2729
    111  CA        73.8650   66.3860   17.6250 C.3   282  PRO282      0.1401
    112  C         73.2030   65.3530   16.6940 C.2   282  PRO282      0.2269
    113  O         73.8000   64.9400   15.7120 O.2   282  PRO282     -0.2865
    114  CB        74.3100   65.7230   18.9390 C.3   282  PRO282      0.0296
    115  CG        74.2050   66.8220   19.8990 C.3   282  PRO282      0.0237
    116  CD        72.8710   67.4640   19.5500 C.3   282  PRO282      0.0939
    117  N         72.6970   66.8080   13.2070 N.3   285  MET285     -0.1245
    118  CA        73.9800   66.8490   12.4810 C.3   285  MET285      0.1570
    119  C         74.3840   65.4560   12.0070 C.2   285  MET285      0.2261
    120  O         74.8120   65.2790   10.8720 O.2   285  MET285     -0.2867
    121  CB        75.1030   67.4180   13.3580 C.3   285  MET285      0.0387
    122  CG        75.0160   68.9240   13.6230 C.3   285  MET285      0.0595
    123  SD        75.0130   69.8630   12.0940 S.3   285  MET285     -0.1393
    124  CE        73.2970   70.1770   11.7910 C.3   285  MET285      0.0692
    125  N         80.7220   57.6690   13.3650 N.3   295  ASN295     -0.1240
    126  CA        81.1650   56.8290   14.4970 C.3   295  ASN295      0.1653
    127  C         82.6810   56.5850   14.4660 C.2   295  ASN295      0.2266
    128  O         83.3280   56.4880   15.5180 O.2   295  ASN295     -0.2867
    129  CB        80.4060   55.4760   14.5350 C.3   295  ASN295      0.1155
    130  CG        79.0420   55.5820   15.2330 C.2   295  ASN295      0.2627
    131  OD1       78.9760   55.7580   16.4460 O.2   295  ASN295     -0.2716
    132  ND2       77.9560   55.5030   14.4560 N.am  295  ASN295     -0.0877
    133  N         84.2570   59.7610   15.7610 N.3   298  ALA298     -0.1231
    134  CA        84.0410   59.8520   17.1960 C.3   298  ALA298      0.1694
    135  C         84.9780   58.9270   17.9640 C.2   298  ALA298      0.2591
    136  O         85.5850   59.3390   18.9560 O.2   298  ALA298     -0.2718
    137  CB        82.5810   59.5480   17.5290 C.3   298  ALA298      0.0304
    138  N         85.0740   57.6690   17.5280 N.am  299  LYS299     -0.1980
    139  CA        85.9570   56.7000   18.1850 C.3   299  LYS299      0.1596
    140  C         87.4100   57.2120   18.1630 C.2   299  LYS299      0.2287
    141  O         88.1250   57.1320   19.1720 O.2   299  LYS299     -0.2864
    142  CB        85.8430   55.3360   17.4890 C.3   299  LYS299      0.0298
    143  CG        86.7440   54.2330   18.0610 C.3   299  LYS299      0.0038
    144  CD        86.4760   53.9950   19.5350 C.3   299  LYS299      0.0206
    145  CE        87.4200   52.9420   20.1010 C.3   299  LYS299      0.1093
    146  NZ        87.1790   52.8210   21.5530 N.3   299  LYS299     -0.1314
    147  N         87.8080   60.0410   20.7880 N.3   302  TYR302     -0.1241
    148  CA        87.9280   59.5780   22.1840 C.3   302  TYR302      0.1605
    149  C         89.3010   58.9310   22.4660 C.2   302  TYR302      0.2264
    150  O         89.7670   58.8810   23.6140 O.2   302  TYR302     -0.2867
    151  CB        86.7450   58.6680   22.5500 C.3   302  TYR302      0.0534
    152  CG        85.4370   59.4520   22.6320 C.ar  302  TYR302     -0.0201
    153  CD1       85.2840   60.5230   23.5360 C.ar  302  TYR302     -0.0009
    154  CD2       84.3690   59.1610   21.7680 C.ar  302  TYR302     -0.0009
    155  CE1       84.0930   61.2880   23.5720 C.ar  302  TYR302      0.0417
    156  CE2       83.1740   59.9270   21.8000 C.ar  302  TYR302      0.0417
    157  CZ        83.0480   60.9810   22.6960 C.ar  302  TYR302      0.1957
    158  OH        81.8790   61.7150   22.7050 O.3   302  TYR302     -0.2866
@<TRIPOS>BOND
     1    31    30    1
     2    29    30   ar
     3    29    27   ar
     4    30    28   ar
     5    27    25   ar
     6    28    26   ar
     7    25    26   ar
     8    25    24    1
     9   120   119    2
    10    20    21    1
    11    24    21    1
    12   124   123    1
    13   119   118    1
    14    21    22    1
    15   123   122    1
    16   118   117    1
    17   118   121    1
    18    22    23    2
    19   121   122    1
    20   125   126    1
    21    15    14    2
    22    14    13    1
    23   132   130   am
    24   127   126    1
    25   127   128    2
    26   126   129    1
    27   129   130    1
    28   130   131    2
    29     4     3    2
    30    13    12    1
    31    13    16    1
    32     3    12   am
    33     3     2    1
    34   113   112    2
    35   133   134    1
    36    17    16    1
    37    17    18    1
    38    17    19    1
    39   105   104    2
    40     2     1    1
    41     2     5    1
    42     7     9   ar
    43     7     6   ar
    44   112   111    1
    45     9    11   ar
    46   104   103    1
    47   104   110   am
    48   134   137    1
    49   134   135    1
    50     5     6    1
    51   142   143    1
    52   142   139    1
    53   138   135   am
    54   138   139    1
    55     6     8   ar
    56   108   106    1
    57   111   110    1
    58   111   114    1
    59   103   106    1
    60   103   102    1
    61   135   136    2
    62   143   144    1
    63    11    10   ar
    64   110   116    1
    65   140   139    1
    66   140   141    2
    67   107   106    1
    68   107   109    1
    69     8    10   ar
    70   114   115    1
    71    32    33    1
    72   144   145    1
    73   116   115    1
    74   145   146    1
    75    98    97    2
    76    39    37    1
    77    33    34    1
    78    33    36    1
    79   147   148    1
    80    97    96    1
    81    37    36    1
    82    37    38    1
    83    34    35    2
    84   154   156   ar
    85   154   152   ar
    86   156   157   ar
    87    94    92    1
    88   148   149    1
    89   148   151    1
    90    96    95    1
    91    96    99    1
    92   149   150    2
    93   151   152    1
    94   152   153   ar
    95   157   158    1
    96   157   155   ar
    97    47    45    1
    98    82    81    1
    99    92    93    1
   100    92    89    1
   101    99   100    1
   102    99   101    1
   103   153   155   ar
   104    54    55    1
   105    54    53    1
   106    90    89    1
   107    90    91    2
   108    89    88    1
   109    45    44    1
   110    81    80    1
   111    46    44    1
   112    44    41    1
   113    80    79    1
   114    53    52    1
   115    52    49    1
   116    79    76    1
   117    78    77    2
   118    41    40    1
   119    41    42    1
   120    71    69   ar
   121    71    73   ar
   122    51    50    2
   123    61    60    1
   124    76    77    1
   125    76    75    1
   126    49    50    1
   127    49    48    1
   128    69    68   ar
   129    77    83   am
   130    43    42    2
   131    74    73    1
   132    73    72   ar
   133    83    84    1
   134    84    85    1
   135    84    87    1
   136    86    85    2
   137    60    62    1
   138    60    57    1
   139    68    67    1
   140    68    70   ar
   141    59    58    2
   142    64    67    1
   143    64    63    1
   144    64    65    1
   145    66    65    2
   146    58    63   am
   147    58    57    1
   148    72    70   ar
   149    57    56    1
