@<TRIPOS>MOLECULE
tmp/1pprB07.pdb
 167 156 0 0 0
SMALL
GASTEIGER

@<TRIPOS>ATOM
      1  N         86.5520   86.3670    7.7240 N.3    44  ILE44      -0.1245
      2  CA        87.0240   85.6630    8.9280 C.3    44  ILE44       0.1561
      3  C         88.5490   85.4800    8.7880 C.2    44  ILE44       0.2260
      4  O         89.3100   85.6580    9.7530 O.2    44  ILE44      -0.2867
      5  CB        86.3400   84.2560    9.0890 C.3    44  ILE44       0.0252
      6  CG1       84.8160   84.4010    9.2460 C.3    44  ILE44       0.0019
      7  CG2       86.9570   83.4750   10.2500 C.3    44  ILE44       0.0019
      8  CD1       84.3820   85.4760   10.2290 C.3    44  ILE44       0.0001
      9  N         90.3760   88.4450    9.7860 N.3    47  MET47      -0.1230
     10  CA        90.3670   88.5750   11.2430 C.3    47  MET47       0.1702
     11  C         91.3720   87.6100   11.8900 C.2    47  MET47       0.2592
     12  O         92.0350   87.9570   12.8860 O.2    47  MET47      -0.2718
     13  CB        88.9600   88.3300   11.8080 C.3    47  MET47       0.0401
     14  CG        87.9520   89.4170   11.4620 C.3    47  MET47       0.0596
     15  SD        86.2710   88.8400   11.8440 S.3    47  MET47      -0.1393
     16  CE        85.3070   89.6510   10.5900 C.3    47  MET47       0.0692
     17  N         91.4720   86.4010   11.3360 N.am   48  ILE48      -0.1980
     18  CA        92.3930   85.3900   11.8530 C.3    48  ILE48       0.1595
     19  C         93.8470   85.8790   11.7230 C.2    48  ILE48       0.2287
     20  O         94.6440   85.8020   12.6700 O.2    48  ILE48      -0.2864
     21  CB        92.1850   84.0200   11.1250 C.3    48  ILE48       0.0276
     22  CG1       90.8320   83.4090   11.5530 C.3    48  ILE48       0.0022
     23  CG2       93.3110   83.0500   11.4820 C.3    48  ILE48       0.0022
     24  CD1       90.4210   82.1730   10.7920 C.3    48  ILE48       0.0001
     25  N         94.8280   88.9420   11.5310 N.3    50  MET50      -0.1230
     26  CA        94.9910   90.0130   12.4990 C.3    50  MET50       0.1702
     27  C         95.1700   89.4920   13.9160 C.2    50  MET50       0.2592
     28  O         96.0040   90.0030   14.6790 O.2    50  MET50      -0.2718
     29  CB        93.7930   90.9630   12.4300 C.3    50  MET50       0.0401
     30  CG        93.8520   92.0680   13.4590 C.3    50  MET50       0.0596
     31  SD        92.5960   93.3250   13.2060 S.3    50  MET50      -0.1393
     32  CE        92.4940   93.9600   14.8340 C.3    50  MET50       0.0692
     33  N         94.3730   88.4830   14.2840 N.am   51  GLY51      -0.1957
     34  CA        94.4600   87.9200   15.6130 C.3    51  GLY51       0.1869
     35  C         95.8100   87.2770   15.8570 C.2    51  GLY51       0.2309
     36  O         96.3640   87.4150   16.9520 O.2    51  GLY51      -0.2863
     37  N         95.7250   90.4330   23.9810 N.3    59  LEU59      -0.1245
     38  CA        94.5290   89.6490   23.6410 C.3    59  LEU59       0.1561
     39  C         93.9800   89.0470   24.9230 C.2    59  LEU59       0.2260
     40  O         92.7850   89.1350   25.1920 O.2    59  LEU59      -0.2867
     41  CB        94.8580   88.5300   22.6530 C.3    59  LEU59       0.0270
     42  CG        94.8530   88.8940   21.1770 C.3    59  LEU59       0.0019
     43  CD1       95.1150   87.6360   20.3510 C.3    59  LEU59       0.0001
     44  CD2       93.5010   89.5110   20.7910 C.3    59  LEU59       0.0001
     45  N         90.5210   96.8160   24.0350 N.3    92  LEU92      -0.1245
     46  CA        90.4460   96.5860   22.5950 C.3    92  LEU92       0.1561
     47  C         91.3030   97.6080   21.8470 C.2    92  LEU92       0.2260
     48  O         91.9690   97.2590   20.8650 O.2    92  LEU92      -0.2867
     49  CB        88.9980   96.5980   22.0970 C.3    92  LEU92       0.0270
     50  CG        88.1900   95.3200   22.4400 C.3    92  LEU92       0.0019
     51  CD1       86.7550   95.4540   21.8890 C.3    92  LEU92       0.0001
     52  CD2       88.8780   94.0730   21.8650 C.3    92  LEU92       0.0001
     53  N         94.7330   96.3880   21.7400 N.3    95  VAL95      -0.1231
     54  CA        94.9010   95.2720   20.8130 C.3    95  VAL95       0.1692
     55  C         95.0520   95.8070   19.3970 C.2    95  VAL95       0.2591
     56  O         95.9240   95.3680   18.6440 O.2    95  VAL95      -0.2718
     57  CB        93.6750   94.2710   20.8530 C.3    95  VAL95       0.0266
     58  CG1       93.6970   93.3360   19.6390 C.3    95  VAL95       0.0020
     59  CG2       93.7030   93.4650   22.1240 C.3    95  VAL95       0.0020
     60  N         94.1910   96.7550   19.0380 N.am   96  ILE96      -0.1980
     61  CA        94.1970   97.3420   17.7010 C.3    96  ILE96       0.1595
     62  C         95.5640   97.9890   17.4110 C.2    96  ILE96       0.2287
     63  O         96.1030   97.8460   16.3090 O.2    96  ILE96      -0.2864
     64  CB        93.0730   98.4240   17.5370 C.3    96  ILE96       0.0276
     65  CG1       91.6740   97.8140   17.7290 C.3    96  ILE96       0.0022
     66  CG2       93.1420   99.0500   16.1530 C.3    96  ILE96       0.0022
     67  CD1       91.2190   96.9670   16.5910 C.3    96  ILE96       0.0001
     68  N         94.1210   95.9880   10.0120 N.3   104  VAL104     -0.1231
     69  CA        92.8430   96.4520   10.5410 C.3   104  VAL104      0.1692
     70  C         91.9130   96.8700    9.4040 C.2   104  VAL104      0.2591
     71  O         90.7190   96.5500    9.4080 O.2   104  VAL104     -0.2718
     72  CB        93.0330   97.6340   11.5030 C.3   104  VAL104      0.0266
     73  CG1       91.6890   98.0360   12.1150 C.3   104  VAL104      0.0020
     74  CG2       94.0410   97.2790   12.5840 C.3   104  VAL104      0.0020
     75  N         92.4550   97.5790    8.4190 N.am  105  MET105     -0.1979
     76  CA        91.6510   98.0270    7.2800 C.3   105  MET105      0.1605
     77  C         91.1800   96.8760    6.4210 C.2   105  MET105      0.2287
     78  O         90.1100   96.9460    5.8090 O.2   105  MET105     -0.2864
     79  CB        92.4250   99.0430    6.4160 C.3   105  MET105      0.0413
     80  CG        92.5500  100.4210    7.0610 C.3   105  MET105      0.0598
     81  SD        90.9550  101.2510    7.3280 S.3   105  MET105     -0.1393
     82  CE        90.1940  101.1270    5.7170 C.3   105  MET105      0.0692
     83  N         90.2380   93.9940    7.4600 N.3   107  VAL107     -0.1231
     84  CA        89.0510   93.4300    8.1220 C.3   107  VAL107      0.1692
     85  C         87.8390   94.2760    7.7310 C.2   107  VAL107      0.2592
     86  O         86.8460   93.7720    7.1940 O.2   107  VAL107     -0.2718
     87  CB        89.2160   93.3980    9.6680 C.3   107  VAL107      0.0266
     88  CG1       87.8850   92.9860   10.3430 C.3   107  VAL107      0.0020
     89  CG2       90.3100   92.3990   10.0600 C.3   107  VAL107      0.0020
     90  N         87.9700   95.5830    7.9180 N.am  108  TYR108     -0.1976
     91  CA        86.9090   96.5250    7.5840 C.3   108  TYR108      0.1639
     92  C         86.4310   96.3610    6.1480 C.2   108  TYR108      0.2290
     93  O         85.2300   96.2880    5.8890 O.2   108  TYR108     -0.2864
     94  CB        87.4120   97.9490    7.8190 C.3   108  TYR108      0.0560
     95  CG        86.4460   99.0240    7.3840 C.ar  108  TYR108     -0.0198
     96  CD1       85.4360   99.4740    8.2420 C.ar  108  TYR108     -0.0009
     97  CD2       86.5410   99.5960    6.1160 C.ar  108  TYR108     -0.0009
     98  CE1       84.5500  100.4720    7.8420 C.ar  108  TYR108      0.0417
     99  CE2       85.6630  100.5800    5.7100 C.ar  108  TYR108      0.0417
    100  CZ        84.6740  101.0170    6.5740 C.ar  108  TYR108      0.1957
    101  OH        83.8090  101.9950    6.1500 O.3   108  TYR108     -0.2866
    102  N         79.4000  107.8690   17.6920 N.3   136  TYR136     -0.1241
    103  CA        80.2810  107.7380   16.5390 C.3   136  TYR136      0.1605
    104  C         81.3860  108.8070   16.5510 C.2   136  TYR136      0.2264
    105  O         82.5410  108.5340   16.2100 O.2   136  TYR136     -0.2867
    106  CB        79.4800  107.8270   15.2420 C.3   136  TYR136      0.0534
    107  CG        80.3310  107.6220   14.0020 C.ar  136  TYR136     -0.0201
    108  CD1       81.0990  106.4670   13.8370 C.ar  136  TYR136     -0.0009
    109  CD2       80.3590  108.5780   12.9890 C.ar  136  TYR136     -0.0009
    110  CE1       81.8650  106.2660   12.6950 C.ar  136  TYR136      0.0417
    111  CE2       81.1280  108.3910   11.8440 C.ar  136  TYR136      0.0417
    112  CZ        81.8770  107.2360   11.6970 C.ar  136  TYR136      0.1957
    113  OH        82.6300  107.0490   10.5520 O.3   136  TYR136     -0.2866
    114  N         83.9050  107.8370   18.8530 N.3   139  PHE139     -0.1227
    115  CA        84.7250  106.7890   18.2370 C.3   139  PHE139      0.1736
    116  C         85.8170  107.3940   17.3320 C.2   139  PHE139      0.2595
    117  O         86.9840  106.9660   17.3750 O.2   139  PHE139     -0.2718
    118  CB        83.8530  105.7970   17.4350 C.3   139  PHE139      0.0547
    119  CG        84.6510  104.7730   16.6620 C.ar  139  PHE139     -0.0202
    120  CD1       85.3230  103.7420   17.3240 C.ar  139  PHE139     -0.0042
    121  CD2       84.7900  104.8810   15.2840 C.ar  139  PHE139     -0.0042
    122  CE1       86.1280  102.8420   16.6190 C.ar  139  PHE139     -0.0003
    123  CE2       85.5940  103.9850   14.5600 C.ar  139  PHE139     -0.0003
    124  CZ        86.2670  102.9630   15.2320 C.ar  139  PHE139     -0.0000
    125  N         85.4420  108.3660   16.5060 N.am  140  LEU140     -0.1980
    126  CA        86.4080  109.0120   15.6180 C.3   140  LEU140      0.1596
    127  C         87.5630  109.6750   16.3940 C.2   140  LEU140      0.2287
    128  O         88.7200  109.6230   15.9640 O.2   140  LEU140     -0.2864
    129  CB        85.7120  110.0210   14.7100 C.3   140  LEU140      0.0297
    130  CG        84.7770  109.3970   13.6780 C.3   140  LEU140      0.0022
    131  CD1       84.0650  110.4790   12.9030 C.3   140  LEU140      0.0001
    132  CD2       85.5630  108.4840   12.7430 C.3   140  LEU140      0.0001
    133  N         89.8240  106.6920   17.9680 N.3   143  LYS143     -0.1245
    134  CA        90.6980  106.0240   17.0160 C.3   143  LYS143      0.1561
    135  C         91.9800  106.8090   16.6710 C.2   143  LYS143      0.2260
    136  O         92.9870  106.2130   16.2590 O.2   143  LYS143     -0.2867
    137  CB        89.9260  105.5970   15.7640 C.3   143  LYS143      0.0271
    138  CG        89.3880  106.7110   14.8960 C.3   143  LYS143      0.0035
    139  CD        90.3120  106.9660   13.7050 C.3   143  LYS143      0.0206
    140  CE        89.6990  107.9590   12.7280 C.3   143  LYS143      0.1093
    141  NZ        89.5810  109.3130   13.3410 N.3   143  LYS143     -0.1314
    142  N         99.4770   81.9070   25.1320 N.3   219  GLY219     -0.1225
    143  CA        99.3840   82.8610   24.0340 C.3   219  GLY219      0.1811
    144  C        100.0180   82.4190   22.7300 C.2   219  GLY219      0.2280
    145  O         99.4950   82.7340   21.6610 O.2   219  GLY219     -0.2866
    146  N         97.8920   79.6290   21.1400 N.3   222  LEU222     -0.1231
    147  CA        96.7180   80.2490   20.5040 C.3   222  LEU222      0.1693
    148  C         97.0920   80.8620   19.1680 C.2   222  LEU222      0.2591
    149  O         96.3680   80.7170   18.1710 O.2   222  LEU222     -0.2718
    150  CB        96.1380   81.3570   21.3810 C.3   222  LEU222      0.0284
    151  CG        95.1320   81.0240   22.4690 C.3   222  LEU222      0.0019
    152  CD1       94.5940   82.3430   22.9990 C.3   222  LEU222      0.0001
    153  CD2       93.9730   80.1790   21.8870 C.3   222  LEU222      0.0001
    154  N         98.2190   81.5810   19.1540 N.am  223  LYS223     -0.1980
    155  CA        98.7130   82.2220   17.9390 C.3   223  LYS223      0.1596
    156  C         98.9820   81.1750   16.8670 C.2   223  LYS223      0.2287
    157  O         98.5790   81.3310   15.7190 O.2   223  LYS223     -0.2864
    158  CB        99.9970   82.9860   18.2830 C.3   223  LYS223      0.0298
    159  CG       100.6470   83.7460   17.1440 C.3   223  LYS223      0.0038
    160  CD       101.9780   84.3280   17.6400 C.3   223  LYS223      0.0206
    161  CE       102.4370   85.5020   16.7910 C.3   223  LYS223      0.1093
    162  NZ       102.3790   85.2380   15.3160 N.3   223  LYS223     -0.1314
    163  N         95.7050   79.8320   15.4060 N.3   226  ALA226     -0.1245
    164  CA        95.1050   80.7960   14.4660 C.3   226  ALA226      0.1562
    165  C         95.8340   80.7180   13.1140 C.2   226  ALA226      0.2260
    166  O         95.2000   80.7140   12.0510 O.2   226  ALA226     -0.2867
    167  CB        95.2040   82.2190   15.0330 C.3   226  ALA226      0.0290
@<TRIPOS>BOND
     1    99    97   ar
     2    99   100   ar
     3    82    81    1
     4    78    77    2
     5    93    92    2
     6    97    95   ar
     7    92    91    1
     8   101   100    1
     9    79    80    1
    10    79    76    1
    11    77    76    1
    12   100    98   ar
    13    80    81    1
    14    86    85    2
    15    76    75    1
    16    95    94    1
    17    95    96   ar
    18    83    84    1
    19    91    94    1
    20    91    90    1
    21     1     2    1
    22    85    90   am
    23    85    84    1
    24    98    96   ar
    25    84    87    1
    26    75    70   am
    27     3     2    1
    28     3     4    2
    29     2     5    1
    30     5     6    1
    31     5     7    1
    32     6     8    1
    33    70    71    2
    34    70    69    1
    35    87    89    1
    36    87    88    1
    37     9    10    1
    38    68    69    1
    39    69    72    1
    40   113   112    1
    41    16    15    1
    42    24    22    1
    43    21    23    1
    44    21    22    1
    45    21    18    1
    46    10    13    1
    47    10    11    1
    48    17    18    1
    49    17    11   am
    50    14    13    1
    51    14    15    1
    52    72    73    1
    53    72    74    1
    54    25    26    1
    55   112   111   ar
    56   112   110   ar
    57    19    18    1
    58    19    20    2
    59   111   109   ar
    60    11    12    2
    61   166   165    2
    62    29    26    1
    63    29    30    1
    64    26    27    1
    65   110   108   ar
    66   140   141    1
    67   140   139    1
    68   132   130    1
    69   131   130    1
    70   109   107   ar
    71   165   164    1
    72    31    30    1
    73    31    32    1
    74   130   129    1
    75   139   138    1
    76   108   107   ar
    77    27    33   am
    78    27    28    2
    79   107   106    1
    80    33    34    1
    81   164   167    1
    82   164   163    1
    83   123   124   ar
    84   123   121   ar
    85   129   126    1
    86   138   137    1
    87   124   122   ar
    88   106   103    1
    89   121   119   ar
    90   162   161    1
    91    34    35    1
    92   126   127    1
    93   126   125    1
    94   157   156    2
    95   137   134    1
    96    35    36    2
    97   128   127    2
    98    66    64    1
    99   105   104    2
   100   136   135    2
   101    63    62    2
   102   125   116   am
   103   103   104    1
   104   103   102    1
   105    67    65    1
   106   122   120   ar
   107   119   120   ar
   108   119   118    1
   109   135   134    1
   110   161   160    1
   111   156   155    1
   112   134   133    1
   113   159   160    1
   114   159   158    1
   115   116   117    2
   116   116   115    1
   117    62    61    1
   118   118   115    1
   119    64    61    1
   120    64    65    1
   121    61    60    1
   122   155   158    1
   123   155   154    1
   124   149   148    2
   125   115   114    1
   126    56    55    2
   127    60    55   am
   128   154   148   am
   129   148   147    1
   130    55    54    1
   131    58    57    1
   132    43    42    1
   133   147   146    1
   134   147   150    1
   135    44    42    1
   136    54    57    1
   137    54    53    1
   138    57    59    1
   139    48    47    2
   140    42    41    1
   141   150   151    1
   142   145   144    2
   143    47    46    1
   144    52    50    1
   145   153   151    1
   146    51    50    1
   147    49    50    1
   148    49    46    1
   149   151   152    1
   150    46    45    1
   151    41    38    1
   152   144   143    1
   153    38    37    1
   154    38    39    1
   155   143   142    1
   156    39    40    2
