@<TRIPOS>MOLECULE
tmp/1pprB11.pdb
 162 153 0 0 0
SMALL
GASTEIGER

@<TRIPOS>ATOM
      1  N         99.8630   88.6620   22.1590 N.3    56  PRO56      -0.2116
      2  CA        99.1520   87.6690   22.9780 C.3    56  PRO56       0.1372
      3  C         98.7330   88.1650   24.3710 C.2    56  PRO56       0.2244
      4  O         97.6300   87.8760   24.8220 O.2    56  PRO56      -0.2868
      5  CB       100.1570   86.5180   23.0590 C.3    56  PRO56       0.0268
      6  CG       100.8420   86.6010   21.7300 C.3    56  PRO56       0.0207
      7  CD       101.1060   88.0860   21.6190 C.3    56  PRO56       0.0892
      8  N         95.7250   90.4330   23.9810 N.3    59  LEU59      -0.1231
      9  CA        94.5290   89.6490   23.6410 C.3    59  LEU59       0.1693
     10  C         93.9800   89.0470   24.9230 C.2    59  LEU59       0.2591
     11  O         92.7850   89.1350   25.1920 O.2    59  LEU59      -0.2718
     12  CB        94.8580   88.5300   22.6530 C.3    59  LEU59       0.0284
     13  CG        94.8530   88.8940   21.1770 C.3    59  LEU59       0.0019
     14  CD1       95.1150   87.6360   20.3510 C.3    59  LEU59       0.0001
     15  CD2       93.5010   89.5110   20.7910 C.3    59  LEU59       0.0001
     16  N         94.8740   88.4910   25.7410 N.am   60  LYS60      -0.1980
     17  CA        94.5200   87.8880   27.0190 C.3    60  LYS60       0.1596
     18  C         93.8410   88.9220   27.9240 C.2    60  LYS60       0.2287
     19  O         92.8140   88.6250   28.5700 O.2    60  LYS60      -0.2864
     20  CB        95.7720   87.3110   27.6910 C.3    60  LYS60       0.0298
     21  CG        95.5360   86.6610   29.0440 C.3    60  LYS60       0.0038
     22  CD        96.8490   86.1140   29.6700 C.3    60  LYS60       0.0206
     23  CE        97.6280   85.1850   28.7080 C.3    60  LYS60       0.1093
     24  NZ        97.1200   83.7820   28.6250 N.3    60  LYS60      -0.1314
     25  N         90.2990   89.6560   26.7350 N.3    63  ALA63      -0.1245
     26  CA        89.3780   88.5550   27.0680 C.3    63  ALA63       0.1562
     27  C         88.9510   88.7060   28.5340 C.2    63  ALA63       0.2260
     28  O         87.7520   88.6750   28.8460 O.2    63  ALA63      -0.2867
     29  CB        90.0500   87.1890   26.8240 C.3    63  ALA63       0.0290
     30  N         79.1870   81.1130   26.8660 N.3   207  ILE207     -0.1245
     31  CA        80.2760   81.7380   26.1240 C.3   207  ILE207      0.1561
     32  C         81.3380   82.3140   27.1160 C.2   207  ILE207      0.2260
     33  O         82.5550   82.2850   26.8460 O.2   207  ILE207     -0.2867
     34  CB        79.7060   82.7920   25.1550 C.3   207  ILE207      0.0252
     35  CG1       79.1080   82.0470   23.9430 C.3   207  ILE207      0.0019
     36  CG2       80.7610   83.8520   24.7410 C.3   207  ILE207      0.0019
     37  CD1       78.3300   82.9180   23.0580 C.3   207  ILE207      0.0001
     38  N         84.1200   79.9680   27.7940 N.3   210  MET210     -0.1230
     39  CA        85.0960   79.8950   26.7110 C.3   210  MET210      0.1702
     40  C         86.0510   81.0900   26.7340 C.2   210  MET210      0.2592
     41  O         87.2470   80.9300   26.4590 O.2   210  MET210     -0.2718
     42  CB        84.4120   79.7560   25.3350 C.3   210  MET210      0.0401
     43  CG        83.7430   78.3770   25.1870 C.3   210  MET210      0.0596
     44  SD        83.0430   78.0100   23.5590 S.3   210  MET210     -0.1393
     45  CE        81.5300   78.7980   23.7060 C.3   210  MET210      0.0692
     46  N         85.5240   82.2790   27.0390 N.am  211  ILE211     -0.1980
     47  CA        86.3380   83.4950   27.1340 C.3   211  ILE211      0.1595
     48  C         87.3820   83.2970   28.2510 C.2   211  ILE211      0.2287
     49  O         88.5670   83.5800   28.0610 O.2   211  ILE211     -0.2864
     50  CB        85.4530   84.7470   27.4100 C.3   211  ILE211      0.0276
     51  CG1       84.6040   85.0510   26.1690 C.3   211  ILE211      0.0022
     52  CG2       86.3280   85.9800   27.7100 C.3   211  ILE211      0.0022
     53  CD1       83.5500   86.1450   26.3730 C.3   211  ILE211      0.0001
     54  N         88.5210   80.4200   29.3620 N.3   213  MET213     -0.1230
     55  CA        89.5070   79.4420   28.8950 C.3   213  MET213      0.1702
     56  C         90.5340   80.1000   27.9620 C.2   213  MET213      0.2592
     57  O         91.7340   79.8310   28.0720 O.2   213  MET213     -0.2718
     58  CB        88.8240   78.2630   28.1720 C.3   213  MET213      0.0401
     59  CG        89.7930   77.2520   27.6280 C.3   213  MET213      0.0596
     60  SD        88.9510   75.7650   27.0210 S.3   213  MET213     -0.1393
     61  CE        90.0750   75.2250   25.7380 C.3   213  MET213      0.0692
     62  N         90.0660   80.9480   27.0460 N.am  214  GLY214     -0.1957
     63  CA        90.9690   81.6120   26.1240 C.3   214  GLY214      0.1869
     64  C         91.9600   82.5120   26.8640 C.2   214  GLY214      0.2309
     65  O         93.1030   82.6440   26.4530 O.2   214  GLY214     -0.2863
     66  N         97.8920   79.6290   21.1400 N.3   222  LEU222     -0.1245
     67  CA        96.7180   80.2490   20.5040 C.3   222  LEU222      0.1561
     68  C         97.0920   80.8620   19.1680 C.2   222  LEU222      0.2260
     69  O         96.3680   80.7170   18.1710 O.2   222  LEU222     -0.2867
     70  CB        96.1380   81.3570   21.3810 C.3   222  LEU222      0.0270
     71  CG        95.1320   81.0240   22.4690 C.3   222  LEU222      0.0019
     72  CD1       94.5940   82.3430   22.9990 C.3   222  LEU222      0.0001
     73  CD2       93.9730   80.1790   21.8870 C.3   222  LEU222      0.0001
     74  N         95.1580   72.6290   17.9010 N.3   254  LEU254     -0.1245
     75  CA        94.0840   72.7320   18.8970 C.3   254  LEU254      0.1561
     76  C         94.3460   71.8280   20.0970 C.2   254  LEU254      0.2260
     77  O         94.0560   72.2000   21.2550 O.2   254  LEU254     -0.2867
     78  CB        92.7120   72.4670   18.2650 C.3   254  LEU254      0.0270
     79  CG        92.2700   73.6110   17.3230 C.3   254  LEU254      0.0019
     80  CD1       90.8890   73.2900   16.7060 C.3   254  LEU254      0.0001
     81  CD2       92.2240   74.9330   18.0700 C.3   254  LEU254      0.0001
     82  N         96.5990   73.7060   22.3540 N.3   257  VAL257     -0.1231
     83  CA        95.8670   74.7420   23.0730 C.3   257  VAL257      0.1692
     84  C         95.1250   74.1220   24.2860 C.2   257  VAL257      0.2591
     85  O         95.1770   74.6590   25.4070 O.2   257  VAL257     -0.2718
     86  CB        94.8210   75.4480   22.1450 C.3   257  VAL257      0.0266
     87  CG1       93.8280   76.2700   22.9840 C.3   257  VAL257      0.0020
     88  CG2       95.5330   76.3740   21.1580 C.3   257  VAL257      0.0020
     89  N         94.4370   72.9920   24.0650 N.am  258  ILE258     -0.1980
     90  CA        93.6770   72.3250   25.1330 C.3   258  ILE258      0.1595
     91  C         94.6030   71.9070   26.2710 C.2   258  ILE258      0.2287
     92  O         94.2690   72.0600   27.4460 O.2   258  ILE258     -0.2864
     93  CB        92.9310   71.0370   24.6280 C.3   258  ILE258      0.0276
     94  CG1       91.9660   71.3510   23.4780 C.3   258  ILE258      0.0022
     95  CG2       92.2200   70.3400   25.7990 C.3   258  ILE258      0.0022
     96  CD1       91.0100   72.4460   23.7520 C.3   258  ILE258      0.0001
     97  N         88.6320   73.1980   30.9830 N.3   266  VAL266     -0.1231
     98  CA        88.0390   72.6290   29.7850 C.3   266  VAL266      0.1692
     99  C         86.6810   72.0000   30.1240 C.2   266  VAL266      0.2591
    100  O         85.7300   72.1210   29.3560 O.2   266  VAL266     -0.2718
    101  CB        88.9800   71.5910   29.1260 C.3   266  VAL266      0.0266
    102  CG1       88.3980   71.1330   27.8150 C.3   266  VAL266      0.0020
    103  CG2       90.3800   72.1980   28.9160 C.3   266  VAL266      0.0020
    104  N         86.6020   71.3290   31.2670 N.am  267  MET267     -0.1979
    105  CA        85.3580   70.7160   31.7100 C.3   267  MET267      0.1605
    106  C         84.2850   71.7850   32.0130 C.2   267  MET267      0.2287
    107  O         83.0970   71.5240   31.7990 O.2   267  MET267     -0.2864
    108  CB        85.5860   69.7930   32.9090 C.3   267  MET267      0.0413
    109  CG        86.3460   68.5190   32.5630 C.3   267  MET267      0.0598
    110  SD        85.5530   67.4930   31.2690 S.3   267  MET267     -0.1393
    111  CE        83.9090   67.2560   31.9230 C.3   267  MET267      0.0692
    112  N         83.8310   74.4950   30.3460 N.3   269  VAL269     -0.1231
    113  CA        83.2780   74.8150   29.0230 C.3   269  VAL269      0.1692
    114  C         82.2880   73.7100   28.6280 C.2   269  VAL269      0.2592
    115  O         81.1420   73.9920   28.3030 O.2   269  VAL269     -0.2718
    116  CB        84.3630   74.9060   27.9190 C.3   269  VAL269      0.0266
    117  CG1       83.6800   75.0330   26.5340 C.3   269  VAL269      0.0020
    118  CG2       85.2520   76.1350   28.1360 C.3   269  VAL269      0.0020
    119  N         82.7250   72.4500   28.7020 N.am  270  TYR270     -0.1976
    120  CA        81.8630   71.3350   28.3100 C.3   270  TYR270      0.1639
    121  C         80.5400   71.2940   29.1090 C.2   270  TYR270      0.2290
    122  O         79.4760   71.1600   28.5360 O.2   270  TYR270     -0.2864
    123  CB        82.6230   70.0050   28.4290 C.3   270  TYR270      0.0560
    124  CG        81.7890   68.8070   28.0750 C.ar  270  TYR270     -0.0198
    125  CD1       81.5980   68.4390   26.7290 C.ar  270  TYR270     -0.0009
    126  CD2       81.1320   68.0710   29.0750 C.ar  270  TYR270     -0.0009
    127  CE1       80.7700   67.3620   26.3850 C.ar  270  TYR270      0.0417
    128  CE2       80.2860   66.9950   28.7490 C.ar  270  TYR270      0.0417
    129  CZ        80.1190   66.6500   27.4010 C.ar  270  TYR270      0.1957
    130  OH        79.3160   65.5700   27.0770 O.3   270  TYR270     -0.2866
    131  N         88.3280   60.3420   17.9720 N.3   301  PHE301     -0.1227
    132  CA        88.4200   61.4780   18.8940 C.3   301  PHE301      0.1736
    133  C         88.5950   61.0170   20.3410 C.2   301  PHE301      0.2595
    134  O         89.4250   61.5570   21.0640 O.2   301  PHE301     -0.2718
    135  CB        87.1900   62.3940   18.7810 C.3   301  PHE301      0.0547
    136  CG        87.1740   63.4960   19.7990 C.ar  301  PHE301     -0.0202
    137  CD1       87.9340   64.6530   19.6020 C.ar  301  PHE301     -0.0042
    138  CD2       86.4360   63.3610   20.9820 C.ar  301  PHE301     -0.0042
    139  CE1       87.9720   65.6650   20.5770 C.ar  301  PHE301     -0.0003
    140  CE2       86.4640   64.3660   21.9600 C.ar  301  PHE301     -0.0003
    141  CZ        87.2420   65.5230   21.7520 C.ar  301  PHE301     -0.0000
    142  N         87.8080   60.0410   20.7880 N.am  302  TYR302     -0.1976
    143  CA        87.9280   59.5780   22.1840 C.3   302  TYR302      0.1639
    144  C         89.3010   58.9310   22.4660 C.2   302  TYR302      0.2290
    145  O         89.7670   58.8810   23.6140 O.2   302  TYR302     -0.2864
    146  CB        86.7450   58.6680   22.5500 C.3   302  TYR302      0.0560
    147  CG        85.4370   59.4520   22.6320 C.ar  302  TYR302     -0.0198
    148  CD1       85.2840   60.5230   23.5360 C.ar  302  TYR302     -0.0009
    149  CD2       84.3690   59.1610   21.7680 C.ar  302  TYR302     -0.0009
    150  CE1       84.0930   61.2880   23.5720 C.ar  302  TYR302      0.0417
    151  CE2       83.1740   59.9270   21.8000 C.ar  302  TYR302      0.0417
    152  CZ        83.0480   60.9810   22.6960 C.ar  302  TYR302      0.1957
    153  OH        81.8790   61.7150   22.7050 O.3   302  TYR302     -0.2866
    154  N         91.8780   62.1350   22.5740 N.3   305  LYS305     -0.1245
    155  CA        91.7910   62.9190   23.8040 C.3   305  LYS305      0.1561
    156  C         92.6150   62.3440   24.9640 C.2   305  LYS305      0.2260
    157  O         92.9630   63.0750   25.8970 O.2   305  LYS305     -0.2867
    158  CB        90.3280   63.1830   24.1950 C.3   305  LYS305      0.0271
    159  CG        89.5090   61.9730   24.6700 C.3   305  LYS305      0.0035
    160  CD        89.6560   61.7640   26.1670 C.3   305  LYS305      0.0206
    161  CE        88.6490   60.7650   26.7320 C.3   305  LYS305      0.1093
    162  NZ        88.9480   59.3690   26.3500 N.3   305  LYS305     -0.1314
@<TRIPOS>BOND
     1    80    79    1
     2    79    81    1
     3    79    78    1
     4    74    75    1
     5   131   132    1
     6    69    68    2
     7    78    75    1
     8   135   132    1
     9   135   136    1
    10   132   133    1
    11    75    76    1
    12    68    67    1
    13   137   136   ar
    14   137   139   ar
    15   136   138   ar
    16    76    77    2
    17   133   142   am
    18   133   134    2
    19    14    13    1
    20    67    66    1
    21    67    70    1
    22   139   141   ar
    23   142   143    1
    24    15    13    1
    25   138   140   ar
    26    88    86    1
    27    13    12    1
    28    70    71    1
    29     7     6    1
    30     7     1    1
    31     6     5    1
    32   141   140   ar
    33   149   151   ar
    34   149   147   ar
    35   151   152   ar
    36    73    71    1
    37    86    87    1
    38    86    83    1
    39     1     2    1
    40   143   144    1
    41   143   146    1
    42    82    83    1
    43   144   145    2
    44    71    72    1
    45   146   147    1
    46   154   155    1
    47   147   148   ar
    48    12     9    1
    49   152   153    1
    50   152   150   ar
    51     2     5    1
    52     2     3    1
    53    37    35    1
    54    83    84    1
    55    94    96    1
    56    94    93    1
    57   148   150   ar
    58    44    45    1
    59    44    43    1
    60     9     8    1
    61     9    10    1
    62   155   158    1
    63   155   156    1
    64    35    34    1
    65    89    84   am
    66    89    90    1
    67   158   159    1
    68    84    85    2
    69     3     4    2
    70    93    90    1
    71    93    95    1
    72   159   160    1
    73    36    34    1
    74    10    11    2
    75    10    16   am
    76   156   157    2
    77    90    91    1
    78    34    31    1
    79    43    42    1
    80    42    39    1
    81    61    60    1
    82    16    17    1
    83    31    30    1
    84    31    32    1
    85    63    64    1
    86    63    62    1
    87   160   161    1
    88    51    53    1
    89    51    50    1
    90    91    92    2
    91   162   161    1
    92   127   125   ar
    93   127   129   ar
    94    65    64    2
    95    41    40    2
    96   117   116    1
    97    39    40    1
    98    39    38    1
    99   125   124   ar
   100    40    46   am
   101    25    26    1
   102    29    26    1
   103    33    32    2
   104    17    20    1
   105    17    18    1
   106    60    59    1
   107    46    47    1
   108    62    56   am
   109    26    27    1
   110   130   129    1
   111    47    50    1
   112    47    48    1
   113   129   128   ar
   114    50    52    1
   115    59    58    1
   116    20    21    1
   117   102   101    1
   118   116   118    1
   119   116   113    1
   120    18    19    2
   121    56    57    2
   122    56    55    1
   123    49    48    2
   124   124   123    1
   125   124   126   ar
   126    58    55    1
   127   115   114    2
   128   120   123    1
   129   120   119    1
   130   120   121    1
   131    27    28    2
   132   122   121    2
   133    24    23    1
   134   114   119   am
   135   114   113    1
   136    23    22    1
   137   128   126   ar
   138    55    54    1
   139   103   101    1
   140   113   112    1
   141    21    22    1
   142   101    98    1
   143   100    99    2
   144    98    99    1
   145    98    97    1
   146    99   104   am
   147   104   105    1
   148   110   111    1
   149   110   109    1
   150   105   106    1
   151   105   108    1
   152   107   106    2
   153   109   108    1
