@<TRIPOS>MOLECULE
tmp/1pprB06.pdb
 120 115 0 0 0
SMALL
GASTEIGER

@<TRIPOS>ATOM
      1  N         68.8490   88.9150   16.4260 N.3    27  ILE27      -0.1231
      2  CA        69.2880   89.2420   15.0700 C.3    27  ILE27       0.1692
      3  C         70.8210   89.2150   14.9320 C.2    27  ILE27       0.2592
      4  O         71.3440   88.8730   13.8690 O.2    27  ILE27      -0.2718
      5  CB        68.7260   90.6110   14.5980 C.3    27  ILE27       0.0266
      6  CG1       68.6900   90.6520   13.0650 C.3    27  ILE27       0.0019
      7  CG2       69.5670   91.7590   15.1960 C.3    27  ILE27       0.0020
      8  CD1       67.7800   91.7270   12.5060 C.3    27  ILE27       0.0001
      9  N         71.5340   89.4480   16.0290 N.am   28  PHE28      -0.1976
     10  CA        72.9940   89.4550   15.9780 C.3    28  PHE28       0.1639
     11  C         73.6180   88.0720   15.7020 C.2    28  PHE28       0.2290
     12  O         74.8300   87.9750   15.4330 O.2    28  PHE28      -0.2864
     13  CB        73.5590   90.0600   17.2500 C.3    28  PHE28       0.0560
     14  CG        73.0220   91.4280   17.5450 C.ar   28  PHE28      -0.0200
     15  CD1       73.0770   92.4350   16.5730 C.ar   28  PHE28      -0.0042
     16  CD2       72.4550   91.7090   18.7800 C.ar   28  PHE28      -0.0042
     17  CE1       72.5670   93.7190   16.8210 C.ar   28  PHE28      -0.0003
     18  CE2       71.9400   92.9890   19.0520 C.ar   28  PHE28      -0.0003
     19  CZ        71.9960   93.9990   18.0640 C.ar   28  PHE28      -0.0000
     20  N         72.5100   86.2850   13.2440 N.3    30  GLN30      -0.1231
     21  CA        72.3960   86.1710   11.7890 C.3    30  GLN30       0.1698
     22  C         73.4170   86.9910   11.0080 C.2    30  GLN30       0.2592
     23  O         74.0260   87.9160   11.5560 O.2    30  GLN30      -0.2718
     24  CB        70.9960   86.5910   11.3470 C.3    30  GLN30       0.0381
     25  CG        69.8700   85.8310   12.0630 C.3    30  GLN30       0.0905
     26  CD        70.0180   84.3230   11.9420 C.2    30  GLN30       0.2608
     27  OE1       70.3610   83.8010   10.8830 O.2    30  GLN30      -0.2717
     28  NE2       69.7650   83.6150   13.0400 N.am   30  GLN30      -0.0878
     29  N         73.6040   86.6410    9.7290 N.am   31  ALA31      -0.1966
     30  CA        74.5300   87.3840    8.8580 C.3    31  ALA31       0.1713
     31  C         73.9260   88.7660    8.6580 C.2    31  ALA31       0.2458
     32  O         72.6980   88.9220    8.6970 O.2    31  ALA31      -0.2730
     33  CB        74.6820   86.6970    7.5290 C.3    31  ALA31       0.0333
     34  N         74.7730   89.7930    8.4430 N.am   32  PRO32      -0.2716
     35  CA        74.2740   91.1560    8.2440 C.3    32  PRO32       0.1536
     36  C         73.7610   91.3630    6.8130 C.2    32  PRO32       0.2599
     37  O         74.2110   92.2750    6.1080 O.2    32  PRO32      -0.2715
     38  CB        75.5110   92.0090    8.5650 C.3    32  PRO32       0.0310
     39  CG        76.6320   91.1670    8.0380 C.3    32  PRO32       0.0237
     40  CD        76.2520   89.7620    8.4500 C.3    32  PRO32       0.0939
     41  N         72.8120   90.5190    6.4060 N.am   33  GLY33      -0.1955
     42  CA        72.2410   90.5680    5.0760 C.3    33  GLY33       0.1869
     43  C         72.1650   89.1310    4.6170 C.2    33  GLY33       0.2309
     44  O         72.1620   88.2270    5.4510 O.2    33  GLY33      -0.2863
     45  N         74.9350   94.2730    4.2170 N.3   116  ASP116     -0.1239
     46  CA        73.9150   94.9600    3.4200 C.3   116  ASP116      0.1674
     47  C         73.9790   96.4620    3.7390 C.2   116  ASP116      0.2266
     48  O         74.0380   96.8690    4.9120 O.2   116  ASP116     -0.2867
     49  CB        72.5270   94.4050    3.7610 C.3   116  ASP116      0.1410
     50  CG        71.4190   94.9670    2.8630 C.2   116  ASP116      0.3668
     51  OD1       71.0960   96.1640    2.9770 O.co2 116  ASP116     -0.2456
     52  OD2       70.8530   94.1930    2.0660 O.co2 116  ASP116     -0.2456
     53  N         71.8390   98.6710    4.0460 N.3   118  LYS118     -0.1231
     54  CA        70.7800   99.1140    4.9450 C.3   118  LYS118      0.1693
     55  C         70.9460   98.7240    6.4040 C.2   118  LYS118      0.2591
     56  O         70.2010   99.2080    7.2550 O.2   118  LYS118     -0.2718
     57  CB        69.4250   98.6400    4.4160 C.3   118  LYS118      0.0285
     58  CG        69.0060   99.3270    3.0990 C.3   118  LYS118      0.0035
     59  CD        67.9010   98.5700    2.3480 C.3   118  LYS118      0.0206
     60  CE        68.4040   97.1960    1.8710 C.3   118  LYS118      0.1093
     61  NZ        69.6780   97.2900    1.0570 N.3   118  LYS118     -0.1314
     62  N         71.9440   97.8940    6.7120 N.am  119  VAL119     -0.1980
     63  CA        72.1590   97.4650    8.0970 C.3   119  VAL119      0.1595
     64  C         72.3970   98.6030    9.0850 C.2   119  VAL119      0.2287
     65  O         71.7150   98.6810   10.1210 O.2   119  VAL119     -0.2864
     66  CB        73.2900   96.4130    8.2030 C.3   119  VAL119      0.0276
     67  CG1       73.7920   96.2760    9.6440 C.3   119  VAL119      0.0022
     68  CG2       72.7850   95.0810    7.6990 C.3   119  VAL119      0.0022
     69  N         69.0730  100.4660    9.8250 N.3   122  TYR122     -0.1227
     70  CA        68.1350   99.6820   10.6280 C.3   122  TYR122      0.1736
     71  C         68.5990   99.6880   12.0930 C.2   122  TYR122      0.2595
     72  O         67.8200   99.9480   13.0060 O.2   122  TYR122     -0.2718
     73  CB        68.0130   98.2490   10.0850 C.3   122  TYR122      0.0548
     74  CG        67.0630   97.3850   10.9000 C.ar  122  TYR122     -0.0200
     75  CD1       65.6840   97.6430   10.9230 C.ar  122  TYR122     -0.0009
     76  CD2       67.5560   96.3640   11.7180 C.ar  122  TYR122     -0.0009
     77  CE1       64.8240   96.9020   11.7580 C.ar  122  TYR122      0.0417
     78  CE2       66.7140   95.6260   12.5510 C.ar  122  TYR122      0.0417
     79  CZ        65.3520   95.8970   12.5810 C.ar  122  TYR122      0.1957
     80  OH        64.5580   95.2240   13.4930 O.3   122  TYR122     -0.2866
     81  N         69.8890   99.4820   12.3210 N.am  123  MET123     -0.1979
     82  CA        70.3990   99.4880   13.6830 C.3   123  MET123      0.1605
     83  C         70.1850  100.8360   14.3580 C.2   123  MET123      0.2287
     84  O         69.8140  100.9060   15.5380 O.2   123  MET123     -0.2864
     85  CB        71.8780   99.1160   13.6980 C.3   123  MET123      0.0413
     86  CG        72.1550   97.6320   13.5060 C.3   123  MET123      0.0598
     87  SD        71.6260   96.6380   14.9420 S.3   123  MET123     -0.1393
     88  CE        70.1970   95.7940   14.2650 C.3   123  MET123      0.0692
     89  N         75.1220   83.5990   26.9250 N.3   204  LEU204     -0.1245
     90  CA        76.2360   84.4450   27.3390 C.3   204  LEU204      0.1561
     91  C         77.0300   83.7980   28.4720 C.2   204  LEU204      0.2260
     92  O         78.2580   83.8650   28.4790 O.2   204  LEU204     -0.2867
     93  CB        75.7400   85.8360   27.7940 C.3   204  LEU204      0.0270
     94  CG        76.8260   86.8730   28.1360 C.3   204  LEU204      0.0019
     95  CD1       77.6250   87.1910   26.8630 C.3   204  LEU204      0.0001
     96  CD2       76.1520   88.1500   28.6650 C.3   204  LEU204      0.0001
     97  N         79.1870   81.1130   26.8660 N.3   207  ILE207     -0.1245
     98  CA        80.2760   81.7380   26.1240 C.3   207  ILE207      0.1561
     99  C         81.3380   82.3140   27.1160 C.2   207  ILE207      0.2260
    100  O         82.5550   82.2850   26.8460 O.2   207  ILE207     -0.2867
    101  CB        79.7060   82.7920   25.1550 C.3   207  ILE207      0.0252
    102  CG1       79.1080   82.0470   23.9430 C.3   207  ILE207      0.0019
    103  CG2       80.7610   83.8520   24.7410 C.3   207  ILE207      0.0019
    104  CD1       78.3300   82.9180   23.0580 C.3   207  ILE207      0.0001
    105  N         84.1200   79.9680   27.7940 N.3   210  MET210     -0.1230
    106  CA        85.0960   79.8950   26.7110 C.3   210  MET210      0.1702
    107  C         86.0510   81.0900   26.7340 C.2   210  MET210      0.2592
    108  O         87.2470   80.9300   26.4590 O.2   210  MET210     -0.2718
    109  CB        84.4120   79.7560   25.3350 C.3   210  MET210      0.0401
    110  CG        83.7430   78.3770   25.1870 C.3   210  MET210      0.0596
    111  SD        83.0430   78.0100   23.5590 S.3   210  MET210     -0.1393
    112  CE        81.5300   78.7980   23.7060 C.3   210  MET210      0.0692
    113  N         85.5240   82.2790   27.0390 N.am  211  ILE211     -0.1980
    114  CA        86.3380   83.4950   27.1340 C.3   211  ILE211      0.1595
    115  C         87.3820   83.2970   28.2510 C.2   211  ILE211      0.2287
    116  O         88.5670   83.5800   28.0610 O.2   211  ILE211     -0.2864
    117  CB        85.4530   84.7470   27.4100 C.3   211  ILE211      0.0276
    118  CG1       84.6040   85.0510   26.1690 C.3   211  ILE211      0.0022
    119  CG2       86.3280   85.9800   27.7100 C.3   211  ILE211      0.0022
    120  CD1       83.5500   86.1450   26.3730 C.3   211  ILE211      0.0001
@<TRIPOS>BOND
     1    61    60    1
     2    60    59    1
     3    52    50   ar
     4    59    58    1
     5    50    51   ar
     6    50    49    1
     7    58    57    1
     8    46    47    1
     9    46    49    1
    10    46    45    1
    11    47    48    2
    12    53    54    1
    13    57    54    1
    14    43    42    1
    15    43    44    2
    16    54    55    1
    17    42    41    1
    18    37    36    2
    19    55    62   am
    20    55    56    2
    21    41    36   am
    22    62    63    1
    23    36    35    1
    24    33    30    1
    25    68    66    1
    26    39    40    1
    27    39    38    1
    28    63    66    1
    29    63    64    1
    30    66    67    1
    31    35    34    1
    32    35    38    1
    33    34    40    1
    34    34    31   am
    35    31    32    2
    36    31    30    1
    37    30    29    1
    38    64    65    2
    39    29    22   am
    40    69    70    1
    41    73    70    1
    42    73    74    1
    43    70    71    1
    44    27    26    2
    45    74    75   ar
    46    74    76   ar
    47    75    77   ar
    48    22    23    2
    49    22    21    1
    50    24    21    1
    51    24    25    1
    52    76    78   ar
    53    77    79   ar
    54    21    20    1
    55    26    25    1
    56    26    28   am
    57    71    81   am
    58    71    72    2
    59    81    82    1
    60     8     6    1
    61    78    79   ar
    62    79    80    1
    63     6     5    1
    64    86    85    1
    65    86    87    1
    66    82    85    1
    67    82    83    1
    68     4     3    2
    69    88    87    1
    70    83    84    2
    71     5     2    1
    72     5     7    1
    73     3     2    1
    74     3     9   am
    75     2     1    1
    76    12    11    2
    77    11    10    1
    78    10     9    1
    79    10    13    1
    80    15    17   ar
    81    15    14   ar
    82    17    19   ar
    83    13    14    1
    84    14    16   ar
    85    19    18   ar
    86    16    18   ar
    87   104   102    1
    88   111   112    1
    89   111   110    1
    90   102   101    1
    91   103   101    1
    92   101    98    1
    93   110   109    1
    94   109   106    1
    95    98    97    1
    96    98    99    1
    97   118   120    1
    98   118   117    1
    99   108   107    2
   100   106   107    1
   101   106   105    1
   102   107   113   am
   103   100    99    2
   104    95    94    1
   105    89    90    1
   106   113   114    1
   107   114   117    1
   108   114   115    1
   109    90    93    1
   110    90    91    1
   111   117   119    1
   112    93    94    1
   113   116   115    2
   114    94    96    1
   115    91    92    2
