@<TRIPOS>MOLECULE
tmp/1pprB10.pdb
 112 108 0 0 0
SMALL
GASTEIGER

@<TRIPOS>ATOM
      1  N         86.5520   86.3670    7.7240 N.3    44  ILE44      -0.1245
      2  CA        87.0240   85.6630    8.9280 C.3    44  ILE44       0.1561
      3  C         88.5490   85.4800    8.7880 C.2    44  ILE44       0.2260
      4  O         89.3100   85.6580    9.7530 O.2    44  ILE44      -0.2867
      5  CB        86.3400   84.2560    9.0890 C.3    44  ILE44       0.0252
      6  CG1       84.8160   84.4010    9.2460 C.3    44  ILE44       0.0019
      7  CG2       86.9570   83.4750   10.2500 C.3    44  ILE44       0.0019
      8  CD1       84.3820   85.4760   10.2290 C.3    44  ILE44       0.0001
      9  N         90.3760   88.4450    9.7860 N.3    47  MET47      -0.1230
     10  CA        90.3670   88.5750   11.2430 C.3    47  MET47       0.1702
     11  C         91.3720   87.6100   11.8900 C.2    47  MET47       0.2592
     12  O         92.0350   87.9570   12.8860 O.2    47  MET47      -0.2718
     13  CB        88.9600   88.3300   11.8080 C.3    47  MET47       0.0401
     14  CG        87.9520   89.4170   11.4620 C.3    47  MET47       0.0596
     15  SD        86.2710   88.8400   11.8440 S.3    47  MET47      -0.1393
     16  CE        85.3070   89.6510   10.5900 C.3    47  MET47       0.0692
     17  N         91.4720   86.4010   11.3360 N.am   48  ILE48      -0.1980
     18  CA        92.3930   85.3900   11.8530 C.3    48  ILE48       0.1595
     19  C         93.8470   85.8790   11.7230 C.2    48  ILE48       0.2287
     20  O         94.6440   85.8020   12.6700 O.2    48  ILE48      -0.2864
     21  CB        92.1850   84.0200   11.1250 C.3    48  ILE48       0.0276
     22  CG1       90.8320   83.4090   11.5530 C.3    48  ILE48       0.0022
     23  CG2       93.3110   83.0500   11.4820 C.3    48  ILE48       0.0022
     24  CD1       90.4210   82.1730   10.7920 C.3    48  ILE48       0.0001
     25  N         72.3040   76.2850    8.6130 N.3   190  VAL190     -0.1231
     26  CA        71.8190   75.6420    9.8430 C.3   190  VAL190      0.1692
     27  C         72.5980   76.0650   11.1010 C.2   190  VAL190      0.2592
     28  O         72.0600   76.1010   12.2140 O.2   190  VAL190     -0.2718
     29  CB        71.8200   74.0740    9.7120 C.3   190  VAL190      0.0266
     30  CG1       73.2340   73.4930    9.8680 C.3   190  VAL190      0.0020
     31  CG2       70.8610   73.4360   10.7660 C.3   190  VAL190      0.0020
     32  N         73.8540   76.4510   10.9170 N.am  191  TYR191     -0.1976
     33  CA        74.6990   76.8150   12.0540 C.3   191  TYR191      0.1639
     34  C         74.2720   78.0930   12.7280 C.2   191  TYR191      0.2290
     35  O         74.7090   78.3630   13.8480 O.2   191  TYR191     -0.2864
     36  CB        76.1790   76.8600   11.6430 C.3   191  TYR191      0.0560
     37  CG        76.5600   75.6220   10.8680 C.ar  191  TYR191     -0.0198
     38  CD1       76.4930   74.3580   11.4700 C.ar  191  TYR191     -0.0009
     39  CD2       76.8620   75.6900    9.5050 C.ar  191  TYR191     -0.0009
     40  CE1       76.7060   73.1920   10.7300 C.ar  191  TYR191      0.0417
     41  CE2       77.0760   74.5270    8.7480 C.ar  191  TYR191      0.0417
     42  CZ        76.9960   73.2820    9.3660 C.ar  191  TYR191      0.1957
     43  OH        77.2170   72.1300    8.6350 O.3   191  TYR191     -0.2866
     44  N         70.9490   78.7680   13.2610 N.3   193  LYS193     -0.1231
     45  CA        69.5940   78.5880   13.7930 C.3   193  LYS193      0.1678
     46  C         69.8370   78.5980   15.3060 C.2   193  LYS193      0.2434
     47  O         70.7820   77.9710   15.8100 O.2   193  LYS193     -0.2733
     48  CB        68.9470   77.2680   13.3510 C.3   193  LYS193      0.0284
     49  CG        68.7600   77.1100   11.8410 C.3   193  LYS193      0.0035
     50  CD        68.0420   78.3020   11.2020 C.3   193  LYS193      0.0206
     51  CE        68.0630   78.1980    9.6470 C.3   193  LYS193      0.1093
     52  NZ        67.8060   79.5210    8.9890 N.3   193  LYS193     -0.1314
     53  N         68.9870   79.3090   16.0550 N.am  194  PRO194     -0.2718
     54  CA        69.1600   79.3900   17.4980 C.3   194  PRO194      0.1535
     55  C         68.9980   78.1090   18.2960 C.2   194  PRO194      0.2598
     56  O         68.3790   77.1500   17.8470 O.2   194  PRO194     -0.2715
     57  CB        68.1480   80.4660   17.9120 C.3   194  PRO194      0.0310
     58  CG        67.0770   80.3570   16.9140 C.3   194  PRO194      0.0237
     59  CD        67.7810   80.0330   15.6080 C.3   194  PRO194      0.0939
     60  N         69.5360   78.1230   19.5080 N.am  195  LEU195     -0.1964
     61  CA        69.4290   76.9720   20.4130 C.3   195  LEU195      0.1713
     62  C         68.0260   76.9860   21.0230 C.2   195  LEU195      0.2458
     63  O         67.6400   77.9600   21.6820 O.2   195  LEU195     -0.2730
     64  CB        70.4700   77.0950   21.5220 C.3   195  LEU195      0.0310
     65  CG        71.9280   77.1270   21.0230 C.3   195  LEU195      0.0022
     66  CD1       72.8460   77.4670   22.1990 C.3   195  LEU195      0.0001
     67  CD2       72.3280   75.7910   20.4070 C.3   195  LEU195      0.0001
     68  N         67.2540   75.8900   20.8460 N.am  196  PRO196     -0.2727
     69  CA        65.8920   75.8320   21.4010 C.3   196  PRO196      0.1402
     70  C         65.8230   76.1080   22.9140 C.2   196  PRO196      0.2269
     71  O         66.5330   75.4740   23.7150 O.2   196  PRO196     -0.2865
     72  CB        65.4500   74.3730   21.1340 C.3   196  PRO196      0.0296
     73  CG        66.3370   73.8810   20.0360 C.3   196  PRO196      0.0237
     74  CD        67.6530   74.6040   20.2340 C.3   196  PRO196      0.0939
     75  N         70.4770   71.4160   23.0580 N.3   278  ASP278     -0.1239
     76  CA        69.3770   70.4520   22.9680 C.3   278  ASP278      0.1674
     77  C         69.9030   69.1070   22.4020 C.2   278  ASP278      0.2266
     78  O         70.7190   69.0940   21.4670 O.2   278  ASP278     -0.2867
     79  CB        68.2990   71.0210   22.0300 C.3   278  ASP278      0.1410
     80  CG        67.0310   70.1990   22.0770 C.2   278  ASP278      0.3668
     81  OD1       66.9820   69.1410   21.4560 O.co2 278  ASP278     -0.2456
     82  OD2       66.1100   70.5760   22.7990 O.co2 278  ASP278     -0.2456
     83  N         68.5950   67.1100   20.4080 N.3   280  SER280     -0.1202
     84  CA        68.2830   66.8960   18.9960 C.3   280  SER280      0.2020
     85  C         69.3080   67.5230   18.0460 C.2   280  SER280      0.2618
     86  O         69.3150   67.2020   16.8640 O.2   280  SER280     -0.2717
     87  CB        66.9120   67.4680   18.6520 C.3   280  SER280      0.2103
     88  OG        65.9130   66.6330   19.2040 O.3   280  SER280     -0.2182
     89  N         70.1240   68.4610   18.5320 N.am  281  ILE281     -0.1979
     90  CA        71.1250   69.1010   17.6670 C.3   281  ILE281      0.1595
     91  C         72.2050   68.1190   17.1730 C.2   281  ILE281      0.2287
     92  O         72.4730   68.0460   15.9650 O.2   281  ILE281     -0.2864
     93  CB        71.6800   70.4120   18.3100 C.3   281  ILE281      0.0276
     94  CG1       70.5660   71.4770   18.2800 C.3   281  ILE281      0.0022
     95  CG2       72.9590   70.9080   17.5860 C.3   281  ILE281      0.0022
     96  CD1       70.8930   72.7390   19.0710 C.3   281  ILE281      0.0001
     97  N         70.5350   65.8250   14.7100 N.3   284  ASN284     -0.1225
     98  CA        70.2740   66.4610   13.4060 C.3   284  ASN284      0.1785
     99  C         71.5690   66.4960   12.5700 C.2   284  ASN284      0.2597
    100  O         71.5560   66.2360   11.3500 O.2   284  ASN284     -0.2718
    101  CB        69.7120   67.8900   13.5750 C.3   284  ASN284      0.1169
    102  CG        69.0950   68.4200   12.2810 C.2   284  ASN284      0.2627
    103  OD1       68.4500   67.6640   11.5530 O.2   284  ASN284     -0.2716
    104  ND2       69.2870   69.6990   11.9880 N.am  284  ASN284     -0.0877
    105  N         72.6970   66.8080   13.2070 N.am  285  MET285     -0.1979
    106  CA        73.9800   66.8490   12.4810 C.3   285  MET285      0.1605
    107  C         74.3840   65.4560   12.0070 C.2   285  MET285      0.2287
    108  O         74.8120   65.2790   10.8720 O.2   285  MET285     -0.2864
    109  CB        75.1030   67.4180   13.3580 C.3   285  MET285      0.0413
    110  CG        75.0160   68.9240   13.6230 C.3   285  MET285      0.0598
    111  SD        75.0130   69.8630   12.0940 S.3   285  MET285     -0.1393
    112  CE        73.2970   70.1770   11.7910 C.3   285  MET285      0.0692
@<TRIPOS>BOND
     1     1     2    1
     2    25    26    1
     3    43    42    1
     4    41    42   ar
     5    41    39   ar
     6     3     2    1
     7     3     4    2
     8     2     5    1
     9    52    51    1
    10     5     6    1
    11     5     7    1
    12     6     8    1
    13    42    40   ar
    14    39    37   ar
    15    51    50    1
    16    29    26    1
    17    29    30    1
    18    29    31    1
    19     9    10    1
    20    26    27    1
    21    16    15    1
    22    40    38   ar
    23    24    22    1
    24    37    38   ar
    25    37    36    1
    26   108   107    2
    27    32    27   am
    28    32    33    1
    29    27    28    2
    30    21    23    1
    31    21    22    1
    32    21    18    1
    33    50    49    1
    34    10    13    1
    35    10    11    1
    36    17    18    1
    37    17    11   am
    38   100    99    2
    39    14    13    1
    40    14    15    1
    41   103   102    2
    42    36    33    1
    43    19    18    1
    44    19    20    2
    45   112   111    1
    46    49    48    1
    47    11    12    2
    48   104   102   am
    49   107   106    1
    50    33    34    1
    51   111   110    1
    52   102   101    1
    53   106   105    1
    54   106   109    1
    55    99   105   am
    56    99    98    1
    57    34    35    2
    58    44    45    1
    59    48    45    1
    60   109   110    1
    61    98   101    1
    62    98    97    1
    63    45    46    1
    64    46    47    2
    65    46    53   am
    66    59    53    1
    67    59    58    1
    68    92    91    2
    69    53    54    1
    70    86    85    2
    71    58    57    1
    72    91    90    1
    73    54    57    1
    74    54    55    1
    75    95    93    1
    76    90    93    1
    77    90    89    1
    78    56    55    2
    79    85    89   am
    80    85    84    1
    81    94    93    1
    82    94    96    1
    83    55    60   am
    84    87    84    1
    85    87    88    1
    86    84    83    1
    87    60    61    1
    88    73    74    1
    89    73    72    1
    90    74    68    1
    91    67    65    1
    92    61    62    1
    93    61    64    1
    94    68    62   am
    95    68    69    1
    96    65    64    1
    97    65    66    1
    98    62    63    2
    99    72    69    1
   100    69    70    1
   101    81    80   ar
   102    78    77    2
   103    79    80    1
   104    79    76    1
   105    80    82   ar
   106    77    76    1
   107    70    71    2
   108    76    75    1
