@<TRIPOS>MOLECULE
tmp/1pprB00.pdb
 170 162 0 0 0
SMALL
GASTEIGER

@<TRIPOS>ATOM
      1  N         72.8170   87.0060   15.8130 N.3    29  LEU29      -0.1245
      2  CA        73.3120   85.6610   15.4940 C.3    29  LEU29       0.1561
      3  C         73.3040   85.4790   13.9470 C.2    29  LEU29       0.2260
      4  O         74.0340   84.6380   13.4010 O.2    29  LEU29      -0.2867
      5  CB        72.4070   84.5810   16.1500 C.3    29  LEU29       0.0270
      6  CG        72.7250   83.1030   15.8540 C.3    29  LEU29       0.0019
      7  CD1       74.1650   82.7480   16.3010 C.3    29  LEU29       0.0001
      8  CD2       71.6670   82.1830   16.5250 C.3    29  LEU29       0.0001
      9  N         74.7730   89.7930    8.4430 N.3    32  PRO32      -0.2116
     10  CA        74.2740   91.1560    8.2440 C.3    32  PRO32       0.1372
     11  C         73.7610   91.3630    6.8130 C.2    32  PRO32       0.2244
     12  O         74.2110   92.2750    6.1080 O.2    32  PRO32      -0.2868
     13  CB        75.5110   92.0090    8.5650 C.3    32  PRO32       0.0268
     14  CG        76.6320   91.1670    8.0380 C.3    32  PRO32       0.0207
     15  CD        76.2520   89.7620    8.4500 C.3    32  PRO32       0.0892
     16  N         86.4530   87.2460    5.0510 N.3    43  ALA43      -0.1231
     17  CA        86.4910   88.2290    6.1310 C.3    43  ALA43       0.1694
     18  C         87.0170   87.5800    7.4150 C.2    43  ALA43       0.2591
     19  O         87.8400   88.1650    8.1260 O.2    43  ALA43      -0.2718
     20  CB        85.1030   88.8360    6.3570 C.3    43  ALA43       0.0304
     21  N         86.5520   86.3670    7.7240 N.am   44  ILE44      -0.1980
     22  CA        87.0240   85.6630    8.9280 C.3    44  ILE44       0.1595
     23  C         88.5490   85.4800    8.7880 C.2    44  ILE44       0.2287
     24  O         89.3100   85.6580    9.7530 O.2    44  ILE44      -0.2864
     25  CB        86.3400   84.2560    9.0890 C.3    44  ILE44       0.0276
     26  CG1       84.8160   84.4010    9.2460 C.3    44  ILE44       0.0022
     27  CG2       86.9570   83.4750   10.2500 C.3    44  ILE44       0.0022
     28  CD1       84.3820   85.4760   10.2290 C.3    44  ILE44       0.0001
     29  N         90.3760   88.4450    9.7860 N.3    47  MET47      -0.1245
     30  CA        90.3670   88.5750   11.2430 C.3    47  MET47       0.1570
     31  C         91.3720   87.6100   11.8900 C.2    47  MET47       0.2261
     32  O         92.0350   87.9570   12.8860 O.2    47  MET47      -0.2867
     33  CB        88.9600   88.3300   11.8080 C.3    47  MET47       0.0387
     34  CG        87.9520   89.4170   11.4620 C.3    47  MET47       0.0595
     35  SD        86.2710   88.8400   11.8440 S.3    47  MET47      -0.1393
     36  CE        85.3070   89.6510   10.5900 C.3    47  MET47       0.0692
     37  N         90.2380   93.9940    7.4600 N.3   107  VAL107     -0.1231
     38  CA        89.0510   93.4300    8.1220 C.3   107  VAL107      0.1692
     39  C         87.8390   94.2760    7.7310 C.2   107  VAL107      0.2592
     40  O         86.8460   93.7720    7.1940 O.2   107  VAL107     -0.2718
     41  CB        89.2160   93.3980    9.6680 C.3   107  VAL107      0.0266
     42  CG1       87.8850   92.9860   10.3430 C.3   107  VAL107      0.0020
     43  CG2       90.3100   92.3990   10.0600 C.3   107  VAL107      0.0020
     44  N         87.9700   95.5830    7.9180 N.am  108  TYR108     -0.1976
     45  CA        86.9090   96.5250    7.5840 C.3   108  TYR108      0.1639
     46  C         86.4310   96.3610    6.1480 C.2   108  TYR108      0.2290
     47  O         85.2300   96.2880    5.8890 O.2   108  TYR108     -0.2864
     48  CB        87.4120   97.9490    7.8190 C.3   108  TYR108      0.0560
     49  CG        86.4460   99.0240    7.3840 C.ar  108  TYR108     -0.0198
     50  CD1       85.4360   99.4740    8.2420 C.ar  108  TYR108     -0.0009
     51  CD2       86.5410   99.5960    6.1160 C.ar  108  TYR108     -0.0009
     52  CE1       84.5500  100.4720    7.8420 C.ar  108  TYR108      0.0417
     53  CE2       85.6630  100.5800    5.7100 C.ar  108  TYR108      0.0417
     54  CZ        84.6740  101.0170    6.5740 C.ar  108  TYR108      0.1957
     55  OH        83.8090  101.9950    6.1500 O.3   108  TYR108     -0.2866
     56  N         84.5960   92.8630    5.5990 N.3   111  VAL111     -0.1231
     57  CA        83.3000   92.8140    6.2800 C.3   111  VAL111      0.1692
     58  C         82.2990   93.7070    5.5200 C.2   111  VAL111      0.2592
     59  O         81.1330   93.3400    5.3360 O.2   111  VAL111     -0.2718
     60  CB        83.4150   93.2250    7.7880 C.3   111  VAL111      0.0266
     61  CG1       82.0240   93.2650    8.4420 C.3   111  VAL111      0.0020
     62  CG2       84.2860   92.2080    8.5210 C.3   111  VAL111      0.0020
     63  N         82.7640   94.8440    5.0090 N.am  112  SER112     -0.1952
     64  CA        81.8840   95.7330    4.2360 C.3   112  SER112      0.1924
     65  C         81.2850   95.0170    3.0360 C.2   112  SER112      0.2314
     66  O         80.1340   95.2510    2.6830 O.2   112  SER112     -0.2863
     67  CB        82.6490   96.9650    3.7290 C.3   112  SER112      0.2116
     68  OG        83.0420   97.7700    4.8210 O.3   112  SER112     -0.2180
     69  N         80.2950   91.9780    2.6950 N.3   114  ILE114     -0.1231
     70  CA        79.1740   91.0960    3.0200 C.3   114  ILE114      0.1692
     71  C         78.0430   91.7670    3.8010 C.2   114  ILE114      0.2592
     72  O         77.0090   91.1390    4.0370 O.2   114  ILE114     -0.2718
     73  CB        79.6300   89.8380    3.8190 C.3   114  ILE114      0.0266
     74  CG1       80.2940   90.2600    5.1410 C.3   114  ILE114      0.0019
     75  CG2       80.5670   88.9870    2.9620 C.3   114  ILE114      0.0020
     76  CD1       80.4250   89.1650    6.1650 C.3   114  ILE114      0.0001
     77  N         78.2170   93.0260    4.1860 N.am  115  THR115     -0.1953
     78  CA        77.1900   93.7200    4.9470 C.3   115  THR115      0.1897
     79  C         76.2350   94.4870    4.0330 C.2   115  THR115      0.2313
     80  O         76.6700   95.2520    3.1690 O.2   115  THR115     -0.2863
     81  CB        77.8170   94.6940    5.9400 C.3   115  THR115      0.1794
     82  OG1       78.7850   94.0000    6.7290 O.3   115  THR115     -0.2208
     83  CG2       76.7610   95.3190    6.8500 C.3   115  THR115      0.0378
     84  N         73.9370   97.3110    2.7000 N.3   117  PRO117     -0.2116
     85  CA        73.9990   98.7680    2.8990 C.3   117  PRO117      0.1372
     86  C         72.9830   99.3380    3.9070 C.2   117  PRO117      0.2244
     87  O         73.2330  100.3610    4.5440 O.2   117  PRO117     -0.2868
     88  CB        73.7410   99.3100    1.4810 C.3   117  PRO117      0.0268
     89  CG        74.2900   98.2320    0.5950 C.3   117  PRO117      0.0207
     90  CD        73.8130   96.9720    1.2670 C.3   117  PRO117      0.0892
     91  N         71.9440   97.8940    6.7120 N.3   119  VAL119     -0.1231
     92  CA        72.1590   97.4650    8.0970 C.3   119  VAL119      0.1678
     93  C         72.3970   98.6030    9.0850 C.2   119  VAL119      0.2434
     94  O         71.7150   98.6810   10.1210 O.2   119  VAL119     -0.2733
     95  CB        73.2900   96.4130    8.2030 C.3   119  VAL119      0.0265
     96  CG1       73.7920   96.2760    9.6440 C.3   119  VAL119      0.0020
     97  CG2       72.7850   95.0810    7.6990 C.3   119  VAL119      0.0020
     98  N         73.3240   99.5340    8.7760 N.am  120  PRO120     -0.2729
     99  CA        73.5390  100.6160    9.7490 C.3   120  PRO120      0.1401
    100  C         72.2750  101.4390   10.0430 C.2   120  PRO120      0.2269
    101  O         72.0090  101.8150   11.1870 O.2   120  PRO120     -0.2865
    102  CB        74.6270  101.4680    9.0670 C.3   120  PRO120      0.0296
    103  CG        75.3830  100.4640    8.2250 C.3   120  PRO120      0.0237
    104  CD        74.2540   99.6580    7.6310 C.3   120  PRO120      0.0939
    105  N         69.8890   99.4820   12.3210 N.3   123  MET123     -0.1245
    106  CA        70.3990   99.4880   13.6830 C.3   123  MET123      0.1570
    107  C         70.1850  100.8360   14.3580 C.2   123  MET123      0.2261
    108  O         69.8140  100.9060   15.5380 O.2   123  MET123     -0.2867
    109  CB        71.8780   99.1160   13.6980 C.3   123  MET123      0.0387
    110  CG        72.1550   97.6320   13.5060 C.3   123  MET123      0.0595
    111  SD        71.6260   96.6380   14.9420 S.3   123  MET123     -0.1393
    112  CE        70.1970   95.7940   14.2650 C.3   123  MET123      0.0692
    113  N         74.9280  109.1540   16.9030 N.3   133  GLU133     -0.1245
    114  CA        75.8230  110.1180   16.2640 C.3   133  GLU133      0.1567
    115  C         76.9020  110.5970   17.2360 C.2   133  GLU133      0.2260
    116  O         78.0850  110.6630   16.8810 O.2   133  GLU133     -0.2867
    117  CB        75.0170  111.3010   15.7400 C.3   133  GLU133      0.0388
    118  CG        74.1240  110.9310   14.5720 C.3   133  GLU133      0.1160
    119  CD        73.0810  111.9880   14.2600 C.2   133  GLU133      0.3649
    120  OE1       73.0980  113.0660   14.9070 O.co2 133  GLU133     -0.2457
    121  OE2       72.2330  111.7370   13.3710 O.co2 133  GLU133     -0.2457
    122  N         79.4000  107.8690   17.6920 N.3   136  TYR136     -0.1227
    123  CA        80.2810  107.7380   16.5390 C.3   136  TYR136      0.1736
    124  C         81.3860  108.8070   16.5510 C.2   136  TYR136      0.2595
    125  O         82.5410  108.5340   16.2100 O.2   136  TYR136     -0.2718
    126  CB        79.4800  107.8270   15.2420 C.3   136  TYR136      0.0548
    127  CG        80.3310  107.6220   14.0020 C.ar  136  TYR136     -0.0200
    128  CD1       81.0990  106.4670   13.8370 C.ar  136  TYR136     -0.0009
    129  CD2       80.3590  108.5780   12.9890 C.ar  136  TYR136     -0.0009
    130  CE1       81.8650  106.2660   12.6950 C.ar  136  TYR136      0.0417
    131  CE2       81.1280  108.3910   11.8440 C.ar  136  TYR136      0.0417
    132  CZ        81.8770  107.2360   11.6970 C.ar  136  TYR136      0.1957
    133  OH        82.6300  107.0490   10.5520 O.3   136  TYR136     -0.2866
    134  N         81.0250  110.0290   16.9310 N.am  137  GLU137     -0.1979
    135  CA        82.0030  111.1130   17.0010 C.3   137  GLU137      0.1602
    136  C         83.0180  110.7660   18.0770 C.2   137  GLU137      0.2287
    137  O         84.2240  110.9500   17.8740 O.2   137  GLU137     -0.2864
    138  CB        81.3200  112.4500   17.2850 C.3   137  GLU137      0.0415
    139  CG        80.7530  113.0920   16.0160 C.3   137  GLU137      0.1163
    140  CD        79.5080  113.9360   16.2720 C.2   137  GLU137      0.3649
    141  OE1       79.3470  114.4510   17.4150 O.co2 137  GLU137     -0.2457
    142  OE2       78.6870  114.0800   15.3240 O.co2 137  GLU137     -0.2457
    143  N         85.4420  108.3660   16.5060 N.3   140  LEU140     -0.1245
    144  CA        86.4080  109.0120   15.6180 C.3   140  LEU140      0.1561
    145  C         87.5630  109.6750   16.3940 C.2   140  LEU140      0.2260
    146  O         88.7200  109.6230   15.9640 O.2   140  LEU140     -0.2867
    147  CB        85.7120  110.0210   14.7100 C.3   140  LEU140      0.0270
    148  CG        84.7770  109.3970   13.6780 C.3   140  LEU140      0.0019
    149  CD1       84.0650  110.4790   12.9030 C.3   140  LEU140      0.0001
    150  CD2       85.5630  108.4840   12.7430 C.3   140  LEU140      0.0001
    151  N         73.8540   76.4510   10.9170 N.3   191  TYR191     -0.1227
    152  CA        74.6990   76.8150   12.0540 C.3   191  TYR191      0.1736
    153  C         74.2720   78.0930   12.7280 C.2   191  TYR191      0.2595
    154  O         74.7090   78.3630   13.8480 O.2   191  TYR191     -0.2718
    155  CB        76.1790   76.8600   11.6430 C.3   191  TYR191      0.0548
    156  CG        76.5600   75.6220   10.8680 C.ar  191  TYR191     -0.0200
    157  CD1       76.4930   74.3580   11.4700 C.ar  191  TYR191     -0.0009
    158  CD2       76.8620   75.6900    9.5050 C.ar  191  TYR191     -0.0009
    159  CE1       76.7060   73.1920   10.7300 C.ar  191  TYR191      0.0417
    160  CE2       77.0760   74.5270    8.7480 C.ar  191  TYR191      0.0417
    161  CZ        76.9960   73.2820    9.3660 C.ar  191  TYR191      0.1957
    162  OH        77.2170   72.1300    8.6350 O.3   191  TYR191     -0.2866
    163  N         73.4240   78.8760   12.0520 N.am  192  MET192     -0.1979
    164  CA        72.9210   80.1080   12.6330 C.3   192  MET192      0.1605
    165  C         71.4770   79.9920   13.1450 C.2   192  MET192      0.2287
    166  O         70.8340   81.0070   13.4210 O.2   192  MET192     -0.2864
    167  CB        73.0890   81.2810   11.6540 C.3   192  MET192      0.0413
    168  CG        74.5540   81.7250   11.5060 C.3   192  MET192      0.0598
    169  SD        74.7100   82.8570   10.1310 S.3   192  MET192     -0.1393
    170  CE        75.9340   84.0500   10.7900 C.3   192  MET192      0.0692
@<TRIPOS>BOND
     1    89    90    1
     2    89    88    1
     3    90    84    1
     4    88    85    1
     5    66    65    2
     6    69    70    1
     7    84    85    1
     8    85    86    1
     9    75    73    1
    10    70    71    1
    11    70    73    1
    12    65    64    1
    13    80    79    2
    14    67    64    1
    15    67    68    1
    16    71    72    2
    17    71    77   am
    18    73    74    1
    19    86    87    2
    20    79    78    1
    21    77    78    1
    22    64    63    1
    23    78    81    1
    24    63    58   am
    25    16    17    1
    26    74    76    1
    27    59    58    2
    28    58    57    1
    29    56    57    1
    30    53    51   ar
    31    53    54   ar
    32    47    46    2
    33    81    82    1
    34    81    83    1
    35    12    11    2
    36    51    49   ar
    37    17    20    1
    38    17    18    1
    39    46    45    1
    40    55    54    1
    41    57    60    1
    42    54    52   ar
    43    91    92    1
    44    11    10    1
    45    40    39    2
    46    49    48    1
    47    49    50   ar
    48    18    21   am
    49    18    19    2
    50    37    38    1
    51    45    48    1
    52    45    44    1
    53   104   103    1
    54   104    98    1
    55    97    95    1
    56    21    22    1
    57    39    44   am
    58    39    38    1
    59    60    61    1
    60    60    62    1
    61    52    50   ar
    62    14    15    1
    63    14    13    1
    64    92    95    1
    65    92    93    1
    66    38    41    1
    67    95    96    1
    68   103   102    1
    69    10     9    1
    70    10    13    1
    71     9    15    1
    72   162   161    1
    73   160   161   ar
    74   160   158   ar
    75    98    93   am
    76    98    99    1
    77    23    22    1
    78    23    24    2
    79    22    25    1
    80   102    99    1
    81    93    94    2
    82    25    26    1
    83    25    27    1
    84    26    28    1
    85   161   159   ar
    86   158   156   ar
    87    41    43    1
    88    41    42    1
    89    99   100    1
    90    29    30    1
    91   100   101    2
    92   169   170    1
    93   169   168    1
    94   133   132    1
    95    36    35    1
    96   159   157   ar
    97   156   157   ar
    98   156   155    1
    99   151   152    1
   100    30    33    1
   101    30    31    1
   102    34    33    1
   103    34    35    1
   104   168   167    1
   105   155   152    1
   106   167   164    1
   107   132   131   ar
   108   132   130   ar
   109   131   129   ar
   110    31    32    2
   111   163   164    1
   112   163   153   am
   113   152   153    1
   114   105   106    1
   115   164   165    1
   116   130   128   ar
   117   153   154    2
   118   150   148    1
   119   149   148    1
   120   129   127   ar
   121   165   166    2
   122   121   119   ar
   123     4     3    2
   124   110   109    1
   125   110   111    1
   126   148   147    1
   127   106   109    1
   128   106   107    1
   129   128   127   ar
   130     3     2    1
   131   127   126    1
   132   119   118    1
   133   119   120   ar
   134   112   111    1
   135   107   108    2
   136   118   117    1
   137   147   144    1
   138   126   123    1
   139   142   140   ar
   140     2     1    1
   141     2     5    1
   142   144   145    1
   143   144   143    1
   144   117   114    1
   145     6     5    1
   146     6     7    1
   147     6     8    1
   148   146   145    2
   149   139   140    1
   150   139   138    1
   151   125   124    2
   152   114   113    1
   153   114   115    1
   154   140   141   ar
   155   123   124    1
   156   123   122    1
   157   124   134   am
   158   116   115    2
   159   134   135    1
   160   135   138    1
   161   135   136    1
   162   137   136    2
