@<TRIPOS>MOLECULE
tmp/1pprB08.pdb
 238 227 0 0 0
SMALL
GASTEIGER

@<TRIPOS>ATOM
      1  N         85.7690  108.3840   25.5310 N.3    10  LEU10      -0.1245
      2  CA        84.9230  107.6570   24.5730 C.3    10  LEU10       0.1561
      3  C         83.6480  107.2300   25.3260 C.2    10  LEU10       0.2260
      4  O         82.5530  107.2930   24.7880 O.2    10  LEU10      -0.2867
      5  CB        85.6720  106.4150   24.0640 C.3    10  LEU10       0.0270
      6  CG        85.3520  105.7250   22.7260 C.3    10  LEU10       0.0019
      7  CD1       85.6160  104.2390   22.8900 C.3    10  LEU10       0.0001
      8  CD2       83.9360  105.9830   22.2470 C.3    10  LEU10       0.0001
      9  N         70.8080   94.4680   23.3810 N.3    23  TRP23      -0.1227
     10  CA        71.8690   93.4730   23.2090 C.3    23  TRP23       0.1737
     11  C         71.3550   92.0320   23.2070 C.2    23  TRP23       0.2595
     12  O         72.0650   91.1230   22.7550 O.2    23  TRP23      -0.2718
     13  CB        72.9320   93.6310   24.3050 C.3    23  TRP23       0.0564
     14  CG        73.5840   95.0110   24.3170 C.ar   23  TRP23       0.0003
     15  CD1       73.2450   96.0780   25.1050 C.ar   23  TRP23       0.0946
     16  CD2       74.6300   95.4730   23.4440 C.ar   23  TRP23       0.0152
     17  NE1       74.0030   97.1780   24.7600 N.ar   23  TRP23      -0.2442
     18  CE2       74.8600   96.8330   23.7510 C.ar   23  TRP23       0.0810
     19  CE3       75.3880   94.8710   22.4340 C.ar   23  TRP23       0.0012
     20  CZ2       75.8190   97.6020   23.0730 C.ar   23  TRP23       0.0191
     21  CZ3       76.3420   95.6390   21.7600 C.ar   23  TRP23       0.0001
     22  CH2       76.5440   96.9860   22.0850 C.ar   23  TRP23       0.0015
     23  N         70.1360   91.8430   23.7080 N.am   24  ASN24      -0.1974
     24  CA        69.5010   90.5310   23.7600 C.3    24  ASN24       0.1688
     25  C         68.7750   90.1490   22.4640 C.2    24  ASN24       0.2292
     26  O         68.1830   89.0690   22.4020 O.2    24  ASN24      -0.2864
     27  CB        68.5040   90.4850   24.9120 C.3    24  ASN24       0.1181
     28  CG        69.1700   90.4930   26.2570 C.2    24  ASN24       0.2629
     29  OD1       70.1630   89.8020   26.4720 O.2    24  ASN24      -0.2716
     30  ND2       68.6290   91.2670   27.1790 N.am   24  ASN24      -0.0877
     31  N         86.3080   91.3410   29.0620 N.3    66  HIS66      -0.1241
     32  CA        84.9550   90.9300   28.6680 C.3    66  HIS66       0.1621
     33  C         84.3580   90.0130   29.7310 C.2    66  HIS66       0.2264
     34  O         83.1730   90.1220   30.0460 O.2    66  HIS66      -0.2867
     35  CB        84.9640   90.2570   27.2950 C.3    66  HIS66       0.0745
     36  CG        85.1120   91.2110   26.1460 C.ar   66  HIS66       0.0817
     37  ND1       86.3430   91.5870   25.6360 N.ar   66  HIS66      -0.2268
     38  CD2       84.1840   91.8250   25.3710 C.ar   66  HIS66       0.1154
     39  CE1       86.1640   92.3860   24.5970 C.ar   66  HIS66       0.1986
     40  NE2       84.8640   92.5460   24.4140 N.ar   66  HIS66      -0.2212
     41  N         83.1650   92.2590   32.3750 N.3    69  ALA69      -0.1231
     42  CA        81.9780   92.9840   31.8960 C.3    69  ALA69       0.1694
     43  C         80.6760   92.1440   31.9410 C.2    69  ALA69       0.2591
     44  O         79.5890   92.6630   32.2910 O.2    69  ALA69      -0.2718
     45  CB        82.2170   93.4890   30.4880 C.3    69  ALA69       0.0304
     46  N         80.7890   90.8560   31.6100 N.am   70  ILE70      -0.1980
     47  CA        79.6330   89.9530   31.6240 C.3    70  ILE70       0.1595
     48  C         79.0710   89.8990   33.0330 C.2    70  ILE70       0.2287
     49  O         77.8410   89.8180   33.2210 O.2    70  ILE70      -0.2864
     50  CB        80.0200   88.5330   31.1170 C.3    70  ILE70       0.0276
     51  CG1       80.1950   88.5630   29.6000 C.3    70  ILE70       0.0022
     52  CG2       78.9630   87.4700   31.5410 C.3    70  ILE70       0.0022
     53  CD1       80.9060   87.3200   29.0490 C.3    70  ILE70       0.0001
     54  N         76.3510   92.8950   33.8370 N.3    73  ILE73      -0.1245
     55  CA        75.1840   93.1070   32.9820 C.3    73  ILE73       0.1561
     56  C         73.9360   93.3410   33.8210 C.2    73  ILE73       0.2260
     57  O         73.7290   92.6530   34.8190 O.2    73  ILE73      -0.2867
     58  CB        74.9020   91.8430   32.1090 C.3    73  ILE73       0.0252
     59  CG1       76.0660   91.5950   31.1780 C.3    73  ILE73       0.0019
     60  CG2       73.6450   92.0290   31.2750 C.3    73  ILE73       0.0019
     61  CD1       76.3980   92.7730   30.3890 C.3    73  ILE73       0.0001
     62  N         70.3880   94.1670   28.6410 N.3    78  GLY78      -0.1210
     63  CA        71.6450   93.4610   28.8360 C.3    78  GLY78       0.1956
     64  C         72.9070   94.3130   28.7320 C.2    78  GLY78       0.2612
     65  O         73.9200   93.8350   28.2430 O.2    78  GLY78      -0.2717
     66  N         72.8850   95.5480   29.2320 N.am   79  VAL79      -0.1965
     67  CA        74.0690   96.4210   29.1390 C.3    79  VAL79       0.1727
     68  C         74.9920   96.3110   30.3660 C.2    79  VAL79       0.2616
     69  O         74.5280   96.1760   31.5040 O.2    79  VAL79      -0.2715
     70  CB        73.6640   97.9180   28.8720 C.3    79  VAL79       0.0290
     71  CG1       72.9800   98.5090   30.0770 C.3    79  VAL79       0.0023
     72  CG2       74.8870   98.7610   28.5010 C.3    79  VAL79       0.0023
     73  N         76.2980   96.2720   30.1060 N.am   80  THR80      -0.1951
     74  CA        77.3120   96.1790   31.1580 C.3    80  THR80       0.1897
     75  C         77.4750   97.5450   31.8340 C.2    80  THR80       0.2313
     76  O         76.9780   98.5460   31.3150 O.2    80  THR80      -0.2863
     77  CB        78.6610   95.6680   30.5850 C.3    80  THR80       0.1794
     78  OG1       79.5500   95.3870   31.6610 O.3    80  THR80      -0.2208
     79  CG2       79.2830   96.6450   29.6170 C.3    80  THR80       0.0378
     80  N         82.3710   99.0260   30.4240 N.3    85  TRP85      -0.1241
     81  CA        82.2930   99.4750   29.0380 C.3    85  TRP85       0.1605
     82  C         83.6400  100.1640   28.6930 C.2    85  TRP85       0.2264
     83  O         84.2460   99.8880   27.6680 O.2    85  TRP85      -0.2867
     84  CB        81.1280  100.4690   28.9020 C.3    85  TRP85       0.0550
     85  CG        80.9290  101.0990   27.5320 C.ar   85  TRP85       0.0003
     86  CD1       81.2120  102.3990   27.1760 C.ar   85  TRP85       0.0946
     87  CD2       80.3890  100.4740   26.3490 C.ar   85  TRP85       0.0152
     88  NE1       80.8840  102.6100   25.8500 N.ar   85  TRP85      -0.2442
     89  CE2       80.3830  101.4480   25.3220 C.ar   85  TRP85       0.0810
     90  CE3       79.9140   99.1850   26.0550 C.ar   85  TRP85       0.0012
     91  CZ2       79.9270  101.1720   24.0260 C.ar   85  TRP85       0.0191
     92  CZ3       79.4540   98.9150   24.7600 C.ar   85  TRP85       0.0001
     93  CH2       79.4660   99.9000   23.7680 C.ar   85  TRP85       0.0015
     94  N         86.5810   97.6490   28.5930 N.3    88  VAL88      -0.1231
     95  CA        86.5730   96.8720   27.3510 C.3    88  VAL88       0.1692
     96  C         87.1270   97.6840   26.1770 C.2    88  VAL88       0.2592
     97  O         87.9760   97.2110   25.4110 O.2    88  VAL88      -0.2718
     98  CB        85.1440   96.3450   27.0250 C.3    88  VAL88       0.0266
     99  CG1       85.0370   95.8890   25.5340 C.3    88  VAL88       0.0020
    100  CG2       84.8020   95.2200   27.9790 C.3    88  VAL88       0.0020
    101  N         86.6310   98.9010   26.0120 N.am   89  ASN89      -0.1974
    102  CA        87.1010   99.7380   24.9160 C.3    89  ASN89       0.1688
    103  C         88.6110  100.0230   24.9840 C.2    89  ASN89       0.2292
    104  O         89.2930  100.0410   23.9540 O.2    89  ASN89      -0.2864
    105  CB        86.2990  101.0370   24.8780 C.3    89  ASN89       0.1181
    106  CG        84.9080  100.8250   24.3540 C.2    89  ASN89       0.2629
    107  OD1       84.6920   99.9580   23.5180 O.2    89  ASN89      -0.2716
    108  ND2       83.9520  101.5980   24.8440 N.am   89  ASN89      -0.0877
    109  N         90.5210   96.8160   24.0350 N.3    92  LEU92      -0.1231
    110  CA        90.4460   96.5860   22.5950 C.3    92  LEU92       0.1693
    111  C         91.3030   97.6080   21.8470 C.2    92  LEU92       0.2592
    112  O         91.9690   97.2590   20.8650 O.2    92  LEU92      -0.2718
    113  CB        88.9980   96.5980   22.0970 C.3    92  LEU92       0.0284
    114  CG        88.1900   95.3200   22.4400 C.3    92  LEU92       0.0019
    115  CD1       86.7550   95.4540   21.8890 C.3    92  LEU92       0.0001
    116  CD2       88.8780   94.0730   21.8650 C.3    92  LEU92       0.0001
    117  N         91.2980   98.8610   22.3160 N.am   93  GLY93      -0.1957
    118  CA        92.1280   99.8910   21.6950 C.3    93  GLY93       0.1869
    119  C         93.5920   99.4610   21.6950 C.2    93  GLY93       0.2309
    120  O         94.2880   99.5880   20.6850 O.2    93  GLY93      -0.2863
    121  N         94.1910   96.7550   19.0380 N.3    96  ILE96      -0.1245
    122  CA        94.1970   97.3420   17.7010 C.3    96  ILE96       0.1561
    123  C         95.5640   97.9890   17.4110 C.2    96  ILE96       0.2260
    124  O         96.1030   97.8460   16.3090 O.2    96  ILE96      -0.2867
    125  CB        93.0730   98.4240   17.5370 C.3    96  ILE96       0.0252
    126  CG1       91.6740   97.8140   17.7290 C.3    96  ILE96       0.0019
    127  CG2       93.1420   99.0500   16.1530 C.3    96  ILE96       0.0019
    128  CD1       91.2190   96.9670   16.5910 C.3    96  ILE96       0.0001
    129  N         98.2350   99.0410   10.6900 N.3   101  GLU101     -0.1245
    130  CA        97.0300   99.5860   10.0960 C.3   101  GLU101      0.1567
    131  C         96.4300   98.8170    8.9450 C.2   101  GLU101      0.2260
    132  O         95.2090   98.6540    8.9040 O.2   101  GLU101     -0.2867
    133  CB        97.2460  101.0410    9.6850 C.3   101  GLU101      0.0388
    134  CG        96.0330  101.6930    9.0280 C.3   101  GLU101      0.1160
    135  CD        96.2860  103.1340    8.5960 C.2   101  GLU101      0.3649
    136  OE1       97.4580  103.5780    8.6120 O.co2 101  GLU101     -0.2457
    137  OE2       95.3110  103.8260    8.2340 O.co2 101  GLU101     -0.2457
    138  N         94.1210   95.9880   10.0120 N.3   104  VAL104     -0.1231
    139  CA        92.8430   96.4520   10.5410 C.3   104  VAL104      0.1692
    140  C         91.9130   96.8700    9.4040 C.2   104  VAL104      0.2591
    141  O         90.7190   96.5500    9.4080 O.2   104  VAL104     -0.2718
    142  CB        93.0330   97.6340   11.5030 C.3   104  VAL104      0.0266
    143  CG1       91.6890   98.0360   12.1150 C.3   104  VAL104      0.0020
    144  CG2       94.0410   97.2790   12.5840 C.3   104  VAL104      0.0020
    145  N         92.4550   97.5790    8.4190 N.am  105  MET105     -0.1979
    146  CA        91.6510   98.0270    7.2800 C.3   105  MET105      0.1605
    147  C         91.1800   96.8760    6.4210 C.2   105  MET105      0.2287
    148  O         90.1100   96.9460    5.8090 O.2   105  MET105     -0.2864
    149  CB        92.4250   99.0430    6.4160 C.3   105  MET105      0.0413
    150  CG        92.5500  100.4210    7.0610 C.3   105  MET105      0.0598
    151  SD        90.9550  101.2510    7.3280 S.3   105  MET105     -0.1393
    152  CE        90.1940  101.1270    5.7170 C.3   105  MET105      0.0692
    153  N         83.9050  107.8370   18.8530 N.3   139  PHE139     -0.1227
    154  CA        84.7250  106.7890   18.2370 C.3   139  PHE139      0.1736
    155  C         85.8170  107.3940   17.3320 C.2   139  PHE139      0.2595
    156  O         86.9840  106.9660   17.3750 O.2   139  PHE139     -0.2718
    157  CB        83.8530  105.7970   17.4350 C.3   139  PHE139      0.0547
    158  CG        84.6510  104.7730   16.6620 C.ar  139  PHE139     -0.0202
    159  CD1       85.3230  103.7420   17.3240 C.ar  139  PHE139     -0.0042
    160  CD2       84.7900  104.8810   15.2840 C.ar  139  PHE139     -0.0042
    161  CE1       86.1280  102.8420   16.6190 C.ar  139  PHE139     -0.0003
    162  CE2       85.5940  103.9850   14.5600 C.ar  139  PHE139     -0.0003
    163  CZ        86.2670  102.9630   15.2320 C.ar  139  PHE139     -0.0000
    164  N         85.4420  108.3660   16.5060 N.am  140  LEU140     -0.1980
    165  CA        86.4080  109.0120   15.6180 C.3   140  LEU140      0.1596
    166  C         87.5630  109.6750   16.3940 C.2   140  LEU140      0.2287
    167  O         88.7200  109.6230   15.9640 O.2   140  LEU140     -0.2864
    168  CB        85.7120  110.0210   14.7100 C.3   140  LEU140      0.0297
    169  CG        84.7770  109.3970   13.6780 C.3   140  LEU140      0.0022
    170  CD1       84.0650  110.4790   12.9030 C.3   140  LEU140      0.0001
    171  CD2       85.5630  108.4840   12.7430 C.3   140  LEU140      0.0001
    172  N         88.5490  108.7510   19.5230 N.3   142  PHE142     -0.1227
    173  CA        89.2600  107.6430   20.1530 C.3   142  PHE142      0.1736
    174  C         90.2500  106.9700   19.1970 C.2   142  PHE142      0.2595
    175  O         91.4050  106.7340   19.5680 O.2   142  PHE142     -0.2718
    176  CB        88.2530  106.6160   20.7000 C.3   142  PHE142      0.0547
    177  CG        88.8900  105.3930   21.3260 C.ar  142  PHE142     -0.0202
    178  CD1       89.4280  105.4510   22.6120 C.ar  142  PHE142     -0.0042
    179  CD2       88.9150  104.1710   20.6390 C.ar  142  PHE142     -0.0042
    180  CE1       89.9800  104.3050   23.2130 C.ar  142  PHE142     -0.0003
    181  CE2       89.4590  103.0240   21.2230 C.ar  142  PHE142     -0.0003
    182  CZ        89.9940  103.0870   22.5150 C.ar  142  PHE142     -0.0000
    183  N         89.8240  106.6920   17.9680 N.am  143  LYS143     -0.1980
    184  CA        90.6980  106.0240   17.0160 C.3   143  LYS143      0.1596
    185  C         91.9800  106.8090   16.6710 C.2   143  LYS143      0.2287
    186  O         92.9870  106.2130   16.2590 O.2   143  LYS143     -0.2864
    187  CB        89.9260  105.5970   15.7640 C.3   143  LYS143      0.0298
    188  CG        89.3880  106.7110   14.8960 C.3   143  LYS143      0.0038
    189  CD        90.3120  106.9660   13.7050 C.3   143  LYS143      0.0206
    190  CE        89.6990  107.9590   12.7280 C.3   143  LYS143      0.1093
    191  NZ        89.5810  109.3130   13.3410 N.3   143  LYS143     -0.1314
    192  N         94.4820  105.8320   19.3400 N.3   146  VAL146     -0.1231
    193  CA        94.9310  104.4640   19.0570 C.3   146  VAL146      0.1692
    194  C         95.9610  104.4970   17.9270 C.2   146  VAL146      0.2591
    195  O         97.0420  103.8960   18.0280 O.2   146  VAL146     -0.2718
    196  CB        93.7270  103.5450   18.6510 C.3   146  VAL146      0.0266
    197  CG1       94.2190  102.1800   18.2020 C.3   146  VAL146      0.0020
    198  CG2       92.7820  103.3880   19.8260 C.3   146  VAL146      0.0020
    199  N         95.6320  105.2300   16.8660 N.am  147  LYS147     -0.1980
    200  CA        96.5150  105.3610   15.7160 C.3   147  LYS147      0.1596
    201  C         97.9140  105.8740   16.0860 C.2   147  LYS147      0.2287
    202  O         98.9120  105.3630   15.5780 O.2   147  LYS147     -0.2864
    203  CB        95.8790  106.2740   14.6660 C.3   147  LYS147      0.0298
    204  CG        96.6340  106.3260   13.3490 C.3   147  LYS147      0.0038
    205  CD        95.8350  107.0930   12.2930 C.3   147  LYS147      0.0206
    206  CE        96.5590  107.1340   10.9570 C.3   147  LYS147      0.1093
    207  NZ        96.9660  105.7650   10.5390 N.3   147  LYS147     -0.1314
    208  N         99.9560  103.0190   17.3800 N.3   150  GLN150     -0.1245
    209  CA        99.9910  101.8350   16.5300 C.3   150  GLN150      0.1566
    210  C        101.3540  101.4780   15.9230 C.2   150  GLN150      0.2260
    211  O        102.0630  102.3490   15.4230 O.2   150  GLN150     -0.2867
    212  CB        98.9340  101.9740   15.4370 C.3   150  GLN150      0.0367
    213  CG        98.7010  100.7190   14.6290 C.3   150  GLN150      0.0905
    214  CD        97.4140  100.7790   13.8140 C.2   150  GLN150      0.2608
    215  OE1       97.1850  101.7250   13.0540 O.2   150  GLN150     -0.2717
    216  NE2       96.5710   99.7610   13.9650 N.am  150  GLN150     -0.0878
    217  N         69.3850   84.7440   25.3760 N.3   200  ALA200     -0.1231
    218  CA        70.6860   85.3490   25.1030 C.3   200  ALA200      0.1694
    219  C         71.5170   85.3870   26.4060 C.2   200  ALA200      0.2591
    220  O         72.7240   85.1630   26.3760 O.2   200  ALA200     -0.2718
    221  CB        70.5030   86.7770   24.5270 C.3   200  ALA200      0.0304
    222  N         70.8840   85.6390   27.5500 N.am  201  GLN201     -0.1979
    223  CA        71.6500   85.6900   28.8050 C.3   201  GLN201      0.1601
    224  C         72.1730   84.3100   29.2230 C.2   201  GLN201      0.2287
    225  O         73.2540   84.2030   29.8220 O.2   201  GLN201     -0.2864
    226  CB        70.8490   86.3580   29.9310 C.3   201  GLN201      0.0394
    227  CG        70.6090   87.8550   29.6910 C.3   201  GLN201      0.0908
    228  CD        71.9380   88.6720   29.6180 C.2   201  GLN201      0.2608
    229  OE1       72.7730   88.5710   30.5140 O.2   201  GLN201     -0.2717
    230  NE2       72.1220   89.4600   28.5490 N.am  201  GLN201     -0.0878
    231  N         75.1220   83.5990   26.9250 N.3   204  LEU204     -0.1245
    232  CA        76.2360   84.4450   27.3390 C.3   204  LEU204      0.1561
    233  C         77.0300   83.7980   28.4720 C.2   204  LEU204      0.2260
    234  O         78.2580   83.8650   28.4790 O.2   204  LEU204     -0.2867
    235  CB        75.7400   85.8360   27.7940 C.3   204  LEU204      0.0270
    236  CG        76.8260   86.8730   28.1360 C.3   204  LEU204      0.0019
    237  CD1       77.6250   87.1910   26.8630 C.3   204  LEU204      0.0001
    238  CD2       76.1520   88.1500   28.6650 C.3   204  LEU204      0.0001
@<TRIPOS>BOND
     1   152   151    1
     2   148   147    2
     3   149   150    1
     4   149   146    1
     5   147   146    1
     6   150   151    1
     7   146   145    1
     8   137   135   ar
     9   145   140   am
    10   135   136   ar
    11   135   134    1
    12   132   131    2
    13   131   130    1
    14   134   133    1
    15   140   141    2
    16   140   139    1
    17   133   130    1
    18   138   139    1
    19   130   129    1
    20   207   206    1
    21   139   142    1
    22   206   205    1
    23   142   143    1
    24   142   144    1
    25   205   204    1
    26   190   191    1
    27   190   189    1
    28   171   169    1
    29   170   169    1
    30   215   214    2
    31   204   203    1
    32   169   168    1
    33   189   188    1
    34   214   216   am
    35   214   213    1
    36   162   163   ar
    37   162   160   ar
    38   213   212    1
    39   203   200    1
    40   168   165    1
    41   188   187    1
    42   163   161   ar
    43   160   158   ar
    44   211   210    2
    45   212   209    1
    46   202   201    2
    47   165   166    1
    48   165   164    1
    49   200   201    1
    50   200   199    1
    51   187   184    1
    52   210   209    1
    53   167   166    2
    54   127   125    1
    55   186   185    2
    56   124   123    2
    57   164   155   am
    58   209   208    1
    59   128   126    1
    60   161   159   ar
    61   158   159   ar
    62   158   157    1
    63   185   184    1
    64   199   194   am
    65   184   183    1
    66   155   156    2
    67   155   154    1
    68   123   122    1
    69   157   154    1
    70   125   122    1
    71   125   126    1
    72   122   121    1
    73   194   195    2
    74   194   193    1
    75   183   174   am
    76   197   196    1
    77   154   153    1
    78   196   193    1
    79   196   198    1
    80   193   192    1
    81   174   175    2
    82   174   173    1
    83   172   173    1
    84   173   176    1
    85   179   181   ar
    86   179   177   ar
    87   120   119    2
    88   176   177    1
    89   112   111    2
    90   181   182   ar
    91   177   178   ar
    92   119   118    1
    93   118   117    1
    94    21    22   ar
    95    21    19   ar
    96   111   117   am
    97   111   110    1
    98   116   114    1
    99   115   114    1
   100    22    20   ar
   101   113   114    1
   102   113   110    1
   103     8     6    1
   104    26    25    2
   105    19    16   ar
   106    25    24    1
   107   182   180   ar
   108   110   109    1
   109   178   180   ar
   110     6     7    1
   111     6     5    1
   112    12    11    2
   113    20    18   ar
   114    11    10    1
   115    11    23   am
   116    10     9    1
   117    10    13    1
   118    16    18   ar
   119    16    14   ar
   120   107   106    2
   121    23    24    1
   122    18    17   ar
   123    24    27    1
   124    93    91   ar
   125    93    92   ar
   126   104   103    2
   127    91    89   ar
   128     5     2    1
   129    13    14    1
   130    14    15   ar
   131   106   108   am
   132   106   105    1
   133    40    39   ar
   134    40    38   ar
   135   221   218    1
   136     2     3    1
   137     2     1    1
   138    39    37   ar
   139    92    90   ar
   140    17    15   ar
   141     4     3    2
   142   105   102    1
   143    27    28    1
   144   102   103    1
   145   102   101    1
   146   218   217    1
   147   218   219    1
   148    89    88   ar
   149    89    87   ar
   150    38    36   ar
   151    97    96    2
   152    99    98    1
   153    37    36   ar
   154    88    86   ar
   155   101    96   am
   156    90    87   ar
   157    36    35    1
   158    96    95    1
   159    28    29    2
   160    28    30   am
   161    87    85   ar
   162   220   219    2
   163   219   222   am
   164   237   236    1
   165   231   232    1
   166    98    95    1
   167    98   100    1
   168    86    85   ar
   169    35    32    1
   170   232   235    1
   171   232   233    1
   172    95    94    1
   173    85    84    1
   174   222   223    1
   175    83    82    2
   176   235   236    1
   177   236   238    1
   178    65    64    2
   179   233   234    2
   180    72    70    1
   181   230   228   am
   182    62    63    1
   183    32    31    1
   184    32    33    1
   185    82    81    1
   186    64    63    1
   187    64    66   am
   188   223   224    1
   189   223   226    1
   190    70    67    1
   191    70    71    1
   192    84    81    1
   193    81    80    1
   194    53    51    1
   195    67    66    1
   196    67    68    1
   197   224   225    2
   198    51    50    1
   199    79    77    1
   200   228   227    1
   201   228   229    2
   202   227   226    1
   203    33    34    2
   204    73    68   am
   205    73    74    1
   206    68    69    2
   207    61    59    1
   208    45    42    1
   209    77    74    1
   210    77    78    1
   211    50    52    1
   212    50    47    1
   213    74    75    1
   214    59    58    1
   215    60    58    1
   216    76    75    2
   217    46    47    1
   218    46    43   am
   219    47    48    1
   220    42    43    1
   221    42    41    1
   222    43    44    2
   223    58    55    1
   224    55    56    1
   225    55    54    1
   226    48    49    2
   227    56    57    2
