@<TRIPOS>MOLECULE
tmp/1pprB03.pdb
 204 192 0 0 0
SMALL
GASTEIGER

@<TRIPOS>ATOM
      1  N         85.7690  108.3840   25.5310 N.3    10  LEU10      -0.1245
      2  CA        84.9230  107.6570   24.5730 C.3    10  LEU10       0.1561
      3  C         83.6480  107.2300   25.3260 C.2    10  LEU10       0.2260
      4  O         82.5530  107.2930   24.7880 O.2    10  LEU10      -0.2867
      5  CB        85.6720  106.4150   24.0640 C.3    10  LEU10       0.0270
      6  CG        85.3520  105.7250   22.7260 C.3    10  LEU10       0.0019
      7  CD1       85.6160  104.2390   22.8900 C.3    10  LEU10       0.0001
      8  CD2       83.9360  105.9830   22.2470 C.3    10  LEU10       0.0001
      9  N         79.7450  107.7370   24.4770 N.3    14  SER14      -0.1217
     10  CA        79.0210  106.5720   23.9650 C.3    14  SER14       0.1889
     11  C         78.1690  105.7160   24.8890 C.2    14  SER14       0.2288
     12  O         77.3910  104.8990   24.3910 O.2    14  SER14      -0.2866
     13  CB        79.9970  105.6610   23.2110 C.3    14  SER14       0.2089
     14  OG        80.9780  105.1320   24.0920 O.3    14  SER14      -0.2183
     15  N         74.2890  105.6640   24.2460 N.3    17  PHE17      -0.1241
     16  CA        73.9470  104.8100   23.1050 C.3    17  PHE17       0.1605
     17  C         74.0010  103.3150   23.5210 C.2    17  PHE17       0.2264
     18  O         73.0880  102.5400   23.2030 O.2    17  PHE17      -0.2867
     19  CB        74.9050  105.0970   21.9360 C.3    17  PHE17       0.0534
     20  CG        75.0220  103.9710   20.9300 C.ar   17  PHE17      -0.0203
     21  CD1       74.1290  103.8780   19.8640 C.ar   17  PHE17      -0.0042
     22  CD2       76.0620  103.0340   21.0250 C.ar   17  PHE17      -0.0042
     23  CE1       74.2600  102.8830   18.9050 C.ar   17  PHE17      -0.0003
     24  CE2       76.2010  102.0360   20.0710 C.ar   17  PHE17      -0.0003
     25  CZ        75.2980  101.9580   19.0040 C.ar   17  PHE17      -0.0000
     26  N         70.9120  100.1610   23.1400 N.3    21  VAL21      -0.1245
     27  CA        70.9710   99.0050   22.2440 C.3    21  VAL21       0.1561
     28  C         70.3400   97.8180   22.9490 C.2    21  VAL21       0.2260
     29  O         70.5370   97.6400   24.1570 O.2    21  VAL21      -0.2867
     30  CB        72.4390   98.6730   21.8540 C.3    21  VAL21       0.0252
     31  CG1       72.5270   97.3710   21.0430 C.3    21  VAL21       0.0019
     32  CG2       73.0350   99.8410   21.0350 C.3    21  VAL21       0.0019
     33  N         70.8080   94.4680   23.3810 N.3    23  TRP23      -0.1241
     34  CA        71.8690   93.4730   23.2090 C.3    23  TRP23       0.1605
     35  C         71.3550   92.0320   23.2070 C.2    23  TRP23       0.2264
     36  O         72.0650   91.1230   22.7550 O.2    23  TRP23      -0.2867
     37  CB        72.9320   93.6310   24.3050 C.3    23  TRP23       0.0550
     38  CG        73.5840   95.0110   24.3170 C.ar   23  TRP23       0.0003
     39  CD1       73.2450   96.0780   25.1050 C.ar   23  TRP23       0.0946
     40  CD2       74.6300   95.4730   23.4440 C.ar   23  TRP23       0.0152
     41  NE1       74.0030   97.1780   24.7600 N.ar   23  TRP23      -0.2442
     42  CE2       74.8600   96.8330   23.7510 C.ar   23  TRP23       0.0810
     43  CE3       75.3880   94.8710   22.4340 C.ar   23  TRP23       0.0012
     44  CZ2       75.8190   97.6020   23.0730 C.ar   23  TRP23       0.0191
     45  CZ3       76.3420   95.6390   21.7600 C.ar   23  TRP23       0.0001
     46  CH2       76.5440   96.9860   22.0850 C.ar   23  TRP23       0.0015
     47  N         94.8280   88.9420   11.5310 N.3    50  MET50      -0.1245
     48  CA        94.9910   90.0130   12.4990 C.3    50  MET50       0.1570
     49  C         95.1700   89.4920   13.9160 C.2    50  MET50       0.2261
     50  O         96.0040   90.0030   14.6790 O.2    50  MET50      -0.2867
     51  CB        93.7930   90.9630   12.4300 C.3    50  MET50       0.0387
     52  CG        93.8520   92.0680   13.4590 C.3    50  MET50       0.0595
     53  SD        92.5960   93.3250   13.2060 S.3    50  MET50      -0.1393
     54  CE        92.4940   93.9600   14.8340 C.3    50  MET50       0.0692
     55  N         95.7250   90.4330   23.9810 N.3    59  LEU59      -0.1245
     56  CA        94.5290   89.6490   23.6410 C.3    59  LEU59       0.1561
     57  C         93.9800   89.0470   24.9230 C.2    59  LEU59       0.2260
     58  O         92.7850   89.1350   25.1920 O.2    59  LEU59      -0.2867
     59  CB        94.8580   88.5300   22.6530 C.3    59  LEU59       0.0270
     60  CG        94.8530   88.8940   21.1770 C.3    59  LEU59       0.0019
     61  CD1       95.1150   87.6360   20.3510 C.3    59  LEU59       0.0001
     62  CD2       93.5010   89.5110   20.7910 C.3    59  LEU59       0.0001
     63  N         92.2440   91.6700   27.0060 N.3    62  ALA62      -0.1231
     64  CA        90.9460   92.0210   26.4360 C.3    62  ALA62       0.1694
     65  C         89.8950   90.9280   26.7480 C.2    62  ALA62       0.2591
     66  O         88.7250   91.2470   26.9990 O.2    62  ALA62      -0.2718
     67  CB        91.0620   92.2430   24.9530 C.3    62  ALA62       0.0304
     68  N         90.2990   89.6560   26.7350 N.am   63  ALA63      -0.1980
     69  CA        89.3780   88.5550   27.0680 C.3    63  ALA63       0.1597
     70  C         88.9510   88.7060   28.5340 C.2    63  ALA63       0.2287
     71  O         87.7520   88.6750   28.8460 O.2    63  ALA63      -0.2864
     72  CB        90.0500   87.1890   26.8240 C.3    63  ALA63       0.0319
     73  N         86.3080   91.3410   29.0620 N.3    66  HIS66      -0.1241
     74  CA        84.9550   90.9300   28.6680 C.3    66  HIS66       0.1621
     75  C         84.3580   90.0130   29.7310 C.2    66  HIS66       0.2264
     76  O         83.1730   90.1220   30.0460 O.2    66  HIS66      -0.2867
     77  CB        84.9640   90.2570   27.2950 C.3    66  HIS66       0.0745
     78  CG        85.1120   91.2110   26.1460 C.ar   66  HIS66       0.0817
     79  ND1       86.3430   91.5870   25.6360 N.ar   66  HIS66      -0.2268
     80  CD2       84.1840   91.8250   25.3710 C.ar   66  HIS66       0.1154
     81  CE1       86.1640   92.3860   24.5970 C.ar   66  HIS66       0.1986
     82  NE2       84.8640   92.5460   24.4140 N.ar   66  HIS66      -0.2212
     83  N         80.7890   90.8560   31.6100 N.3    70  ILE70      -0.1245
     84  CA        79.6330   89.9530   31.6240 C.3    70  ILE70       0.1561
     85  C         79.0710   89.8990   33.0330 C.2    70  ILE70       0.2260
     86  O         77.8410   89.8180   33.2210 O.2    70  ILE70      -0.2867
     87  CB        80.0200   88.5330   31.1170 C.3    70  ILE70       0.0252
     88  CG1       80.1950   88.5630   29.6000 C.3    70  ILE70       0.0019
     89  CG2       78.9630   87.4700   31.5410 C.3    70  ILE70       0.0019
     90  CD1       80.9060   87.3200   29.0490 C.3    70  ILE70       0.0001
     91  N         82.3710   99.0260   30.4240 N.3    85  TRP85      -0.1241
     92  CA        82.2930   99.4750   29.0380 C.3    85  TRP85       0.1605
     93  C         83.6400  100.1640   28.6930 C.2    85  TRP85       0.2264
     94  O         84.2460   99.8880   27.6680 O.2    85  TRP85      -0.2867
     95  CB        81.1280  100.4690   28.9020 C.3    85  TRP85       0.0550
     96  CG        80.9290  101.0990   27.5320 C.ar   85  TRP85       0.0003
     97  CD1       81.2120  102.3990   27.1760 C.ar   85  TRP85       0.0946
     98  CD2       80.3890  100.4740   26.3490 C.ar   85  TRP85       0.0152
     99  NE1       80.8840  102.6100   25.8500 N.ar   85  TRP85      -0.2442
    100  CE2       80.3830  101.4480   25.3220 C.ar   85  TRP85       0.0810
    101  CE3       79.9140   99.1850   26.0550 C.ar   85  TRP85       0.0012
    102  CZ2       79.9270  101.1720   24.0260 C.ar   85  TRP85       0.0191
    103  CZ3       79.4540   98.9150   24.7600 C.ar   85  TRP85       0.0001
    104  CH2       79.4660   99.9000   23.7680 C.ar   85  TRP85       0.0015
    105  N         86.6310   98.9010   26.0120 N.3    89  ASN89      -0.1240
    106  CA        87.1010   99.7380   24.9160 C.3    89  ASN89       0.1653
    107  C         88.6110  100.0230   24.9840 C.2    89  ASN89       0.2266
    108  O         89.2930  100.0410   23.9540 O.2    89  ASN89      -0.2867
    109  CB        86.2990  101.0370   24.8780 C.3    89  ASN89       0.1155
    110  CG        84.9080  100.8250   24.3540 C.2    89  ASN89       0.2627
    111  OD1       84.6920   99.9580   23.5180 O.2    89  ASN89      -0.2716
    112  ND2       83.9520  101.5980   24.8440 N.am   89  ASN89      -0.0877
    113  N         90.5210   96.8160   24.0350 N.3    92  LEU92      -0.1245
    114  CA        90.4460   96.5860   22.5950 C.3    92  LEU92       0.1561
    115  C         91.3030   97.6080   21.8470 C.2    92  LEU92       0.2260
    116  O         91.9690   97.2590   20.8650 O.2    92  LEU92      -0.2867
    117  CB        88.9980   96.5980   22.0970 C.3    92  LEU92       0.0270
    118  CG        88.1900   95.3200   22.4400 C.3    92  LEU92       0.0019
    119  CD1       86.7550   95.4540   21.8890 C.3    92  LEU92       0.0001
    120  CD2       88.8780   94.0730   21.8650 C.3    92  LEU92       0.0001
    121  N         94.7330   96.3880   21.7400 N.3    95  VAL95      -0.1231
    122  CA        94.9010   95.2720   20.8130 C.3    95  VAL95       0.1692
    123  C         95.0520   95.8070   19.3970 C.2    95  VAL95       0.2591
    124  O         95.9240   95.3680   18.6440 O.2    95  VAL95      -0.2718
    125  CB        93.6750   94.2710   20.8530 C.3    95  VAL95       0.0266
    126  CG1       93.6970   93.3360   19.6390 C.3    95  VAL95       0.0020
    127  CG2       93.7030   93.4650   22.1240 C.3    95  VAL95       0.0020
    128  N         94.1910   96.7550   19.0380 N.am   96  ILE96      -0.1980
    129  CA        94.1970   97.3420   17.7010 C.3    96  ILE96       0.1595
    130  C         95.5640   97.9890   17.4110 C.2    96  ILE96       0.2287
    131  O         96.1030   97.8460   16.3090 O.2    96  ILE96      -0.2864
    132  CB        93.0730   98.4240   17.5370 C.3    96  ILE96       0.0276
    133  CG1       91.6740   97.8140   17.7290 C.3    96  ILE96       0.0022
    134  CG2       93.1420   99.0500   16.1530 C.3    96  ILE96       0.0022
    135  CD1       91.2190   96.9670   16.5910 C.3    96  ILE96       0.0001
    136  N         87.9700   95.5830    7.9180 N.3   108  TYR108     -0.1241
    137  CA        86.9090   96.5250    7.5840 C.3   108  TYR108      0.1605
    138  C         86.4310   96.3610    6.1480 C.2   108  TYR108      0.2264
    139  O         85.2300   96.2880    5.8890 O.2   108  TYR108     -0.2867
    140  CB        87.4120   97.9490    7.8190 C.3   108  TYR108      0.0534
    141  CG        86.4460   99.0240    7.3840 C.ar  108  TYR108     -0.0201
    142  CD1       85.4360   99.4740    8.2420 C.ar  108  TYR108     -0.0009
    143  CD2       86.5410   99.5960    6.1160 C.ar  108  TYR108     -0.0009
    144  CE1       84.5500  100.4720    7.8420 C.ar  108  TYR108      0.0417
    145  CE2       85.6630  100.5800    5.7100 C.ar  108  TYR108      0.0417
    146  CZ        84.6740  101.0170    6.5740 C.ar  108  TYR108      0.1957
    147  OH        83.8090  101.9950    6.1500 O.3   108  TYR108     -0.2866
    148  N         73.5130  107.9690   18.9770 N.3   132  ALA132     -0.1245
    149  CA        74.3330  107.1310   18.1000 C.3   132  ALA132      0.1562
    150  C         75.3800  108.0190   17.4260 C.2   132  ALA132      0.2260
    151  O         76.5720  107.6960   17.3920 O.2   132  ALA132     -0.2867
    152  CB        73.4690  106.4510   17.0550 C.3   132  ALA132      0.0290
    153  N         77.9570  108.9950   19.8250 N.3   135  ALA135     -0.1231
    154  CA        78.8360  107.8580   20.0730 C.3   135  ALA135      0.1694
    155  C         79.8520  107.6950   18.9290 C.2   135  ALA135      0.2592
    156  O         81.0380  107.4290   19.1720 O.2   135  ALA135     -0.2718
    157  CB        78.0030  106.5700   20.2560 C.3   135  ALA135      0.0304
    158  N         79.4000  107.8690   17.6920 N.am  136  TYR136     -0.1976
    159  CA        80.2810  107.7380   16.5390 C.3   136  TYR136      0.1639
    160  C         81.3860  108.8070   16.5510 C.2   136  TYR136      0.2290
    161  O         82.5410  108.5340   16.2100 O.2   136  TYR136     -0.2864
    162  CB        79.4800  107.8270   15.2420 C.3   136  TYR136      0.0560
    163  CG        80.3310  107.6220   14.0020 C.ar  136  TYR136     -0.0198
    164  CD1       81.0990  106.4670   13.8370 C.ar  136  TYR136     -0.0009
    165  CD2       80.3590  108.5780   12.9890 C.ar  136  TYR136     -0.0009
    166  CE1       81.8650  106.2660   12.6950 C.ar  136  TYR136      0.0417
    167  CE2       81.1280  108.3910   11.8440 C.ar  136  TYR136      0.0417
    168  CZ        81.8770  107.2360   11.6970 C.ar  136  TYR136      0.1957
    169  OH        82.6300  107.0490   10.5520 O.3   136  TYR136     -0.2866
    170  N         83.9050  107.8370   18.8530 N.3   139  PHE139     -0.1241
    171  CA        84.7250  106.7890   18.2370 C.3   139  PHE139      0.1605
    172  C         85.8170  107.3940   17.3320 C.2   139  PHE139      0.2264
    173  O         86.9840  106.9660   17.3750 O.2   139  PHE139     -0.2867
    174  CB        83.8530  105.7970   17.4350 C.3   139  PHE139      0.0534
    175  CG        84.6510  104.7730   16.6620 C.ar  139  PHE139     -0.0203
    176  CD1       85.3230  103.7420   17.3240 C.ar  139  PHE139     -0.0042
    177  CD2       84.7900  104.8810   15.2840 C.ar  139  PHE139     -0.0042
    178  CE1       86.1280  102.8420   16.6190 C.ar  139  PHE139     -0.0003
    179  CE2       85.5940  103.9850   14.5600 C.ar  139  PHE139     -0.0003
    180  CZ        86.2670  102.9630   15.2320 C.ar  139  PHE139     -0.0000
    181  N         75.1220   83.5990   26.9250 N.3   204  LEU204     -0.1245
    182  CA        76.2360   84.4450   27.3390 C.3   204  LEU204      0.1561
    183  C         77.0300   83.7980   28.4720 C.2   204  LEU204      0.2260
    184  O         78.2580   83.8650   28.4790 O.2   204  LEU204     -0.2867
    185  CB        75.7400   85.8360   27.7940 C.3   204  LEU204      0.0270
    186  CG        76.8260   86.8730   28.1360 C.3   204  LEU204      0.0019
    187  CD1       77.6250   87.1910   26.8630 C.3   204  LEU204      0.0001
    188  CD2       76.1520   88.1500   28.6650 C.3   204  LEU204      0.0001
    189  N         79.1870   81.1130   26.8660 N.3   207  ILE207     -0.1245
    190  CA        80.2760   81.7380   26.1240 C.3   207  ILE207      0.1561
    191  C         81.3380   82.3140   27.1160 C.2   207  ILE207      0.2260
    192  O         82.5550   82.2850   26.8460 O.2   207  ILE207     -0.2867
    193  CB        79.7060   82.7920   25.1550 C.3   207  ILE207      0.0252
    194  CG1       79.1080   82.0470   23.9430 C.3   207  ILE207      0.0019
    195  CG2       80.7610   83.8520   24.7410 C.3   207  ILE207      0.0019
    196  CD1       78.3300   82.9180   23.0580 C.3   207  ILE207      0.0001
    197  N         85.5240   82.2790   27.0390 N.3   211  ILE211     -0.1245
    198  CA        86.3380   83.4950   27.1340 C.3   211  ILE211      0.1561
    199  C         87.3820   83.2970   28.2510 C.2   211  ILE211      0.2260
    200  O         88.5670   83.5800   28.0610 O.2   211  ILE211     -0.2867
    201  CB        85.4530   84.7470   27.4100 C.3   211  ILE211      0.0252
    202  CG1       84.6040   85.0510   26.1690 C.3   211  ILE211      0.0019
    203  CG2       86.3280   85.9800   27.7100 C.3   211  ILE211      0.0019
    204  CD1       83.5500   86.1450   26.3730 C.3   211  ILE211      0.0001
@<TRIPOS>BOND
     1   145   143   ar
     2   145   146   ar
     3   139   138    2
     4   143   141   ar
     5   138   137    1
     6   147   146    1
     7   146   144   ar
     8   141   140    1
     9   141   142   ar
    10   137   140    1
    11   137   136    1
    12   144   142   ar
    13   169   168    1
    14    47    48    1
    15   168   167   ar
    16   168   166   ar
    17   167   165   ar
    18    51    48    1
    19    51    52    1
    20    48    49    1
    21   166   164   ar
    22   165   163   ar
    23    53    52    1
    24    53    54    1
    25   164   163   ar
    26    49    50    2
    27   163   162    1
    28   179   180   ar
    29   179   177   ar
    30   180   178   ar
    31   162   159    1
    32   177   175   ar
    33   134   132    1
    34   161   160    2
    35   131   130    2
    36   159   160    1
    37   159   158    1
    38   135   133    1
    39   178   176   ar
    40   175   176   ar
    41   175   174    1
    42   152   149    1
    43   172   173    2
    44   172   171    1
    45   151   150    2
    46   130   129    1
    47   150   149    1
    48   174   171    1
    49   132   129    1
    50   132   133    1
    51   158   155   am
    52   129   128    1
    53   149   148    1
    54   171   170    1
    55   124   123    2
    56    23    25   ar
    57    23    21   ar
    58   155   156    2
    59   155   154    1
    60    25    24   ar
    61   128   123   am
    62   123   122    1
    63   126   125    1
    64   153   154    1
    65    21    20   ar
    66    24    22   ar
    67   154   157    1
    68    61    60    1
    69    62    60    1
    70   122   125    1
    71   122   121    1
    72   125   127    1
    73   116   115    2
    74    20    22   ar
    75    20    19    1
    76    32    30    1
    77    31    30    1
    78    60    59    1
    79    45    46   ar
    80    45    43   ar
    81   115   114    1
    82    30    27    1
    83   120   118    1
    84   119   118    1
    85    19    16    1
    86    46    44   ar
    87   117   118    1
    88   117   114    1
    89    27    28    1
    90    27    26    1
    91     8     6    1
    92    43    40   ar
    93   114   113    1
    94    59    56    1
    95     6     7    1
    96     6     5    1
    97    36    35    2
    98    28    29    2
    99   196   194    1
   100    44    42   ar
   101    16    17    1
   102    16    15    1
   103    18    17    2
   104    35    34    1
   105    34    33    1
   106    34    37    1
   107    13    10    1
   108    13    14    1
   109    40    42   ar
   110    40    38   ar
   111   111   110    2
   112    56    55    1
   113    56    57    1
   114    42    41   ar
   115   104   102   ar
   116   104   103   ar
   117   194   193    1
   118   108   107    2
   119    10     9    1
   120    10    11    1
   121   102   100   ar
   122     5     2    1
   123    37    38    1
   124    38    39   ar
   125   110   112   am
   126   110   109    1
   127    12    11    2
   128    82    81   ar
   129    82    80   ar
   130     2     3    1
   131     2     1    1
   132    81    79   ar
   133   195   193    1
   134    41    39   ar
   135   103   101   ar
   136     4     3    2
   137   109   106    1
   138   106   107    1
   139   106   105    1
   140    57    58    2
   141    67    64    1
   142   193   190    1
   143   100    99   ar
   144   100    98   ar
   145    80    78   ar
   146    79    78   ar
   147    99    97   ar
   148   101    98   ar
   149   190   189    1
   150   190   191    1
   151    78    77    1
   152   202   204    1
   153   202   201    1
   154    98    96   ar
   155    64    65    1
   156    64    63    1
   157    68    65   am
   158    68    69    1
   159    65    66    2
   160    72    69    1
   161   192   191    2
   162   187   186    1
   163   181   182    1
   164   197   198    1
   165    69    70    1
   166   198   201    1
   167   198   199    1
   168    97    96   ar
   169    77    74    1
   170   182   185    1
   171   182   183    1
   172   201   203    1
   173    96    95    1
   174    94    93    2
   175   185   186    1
   176   200   199    2
   177   186   188    1
   178   183   184    2
   179    70    71    2
   180    74    73    1
   181    74    75    1
   182    93    92    1
   183    95    92    1
   184    92    91    1
   185    90    88    1
   186    88    87    1
   187    75    76    2
   188    87    89    1
   189    87    84    1
   190    83    84    1
   191    84    85    1
   192    85    86    2
