@<TRIPOS>MOLECULE
tmp/1pprB05.pdb
 183 176 0 0 0
SMALL
GASTEIGER

@<TRIPOS>ATOM
      1  N         74.2890  105.6640   24.2460 N.3    17  PHE17      -0.1241
      2  CA        73.9470  104.8100   23.1050 C.3    17  PHE17       0.1605
      3  C         74.0010  103.3150   23.5210 C.2    17  PHE17       0.2264
      4  O         73.0880  102.5400   23.2030 O.2    17  PHE17      -0.2867
      5  CB        74.9050  105.0970   21.9360 C.3    17  PHE17       0.0534
      6  CG        75.0220  103.9710   20.9300 C.ar   17  PHE17      -0.0203
      7  CD1       74.1290  103.8780   19.8640 C.ar   17  PHE17      -0.0042
      8  CD2       76.0620  103.0340   21.0250 C.ar   17  PHE17      -0.0042
      9  CE1       74.2600  102.8830   18.9050 C.ar   17  PHE17      -0.0003
     10  CE2       76.2010  102.0360   20.0710 C.ar   17  PHE17      -0.0003
     11  CZ        75.2980  101.9580   19.0040 C.ar   17  PHE17      -0.0000
     12  N         70.9120  100.1610   23.1400 N.3    21  VAL21      -0.1245
     13  CA        70.9710   99.0050   22.2440 C.3    21  VAL21       0.1561
     14  C         70.3400   97.8180   22.9490 C.2    21  VAL21       0.2260
     15  O         70.5370   97.6400   24.1570 O.2    21  VAL21      -0.2867
     16  CB        72.4390   98.6730   21.8540 C.3    21  VAL21       0.0252
     17  CG1       72.5270   97.3710   21.0430 C.3    21  VAL21       0.0019
     18  CG2       73.0350   99.8410   21.0350 C.3    21  VAL21       0.0019
     19  N         70.8080   94.4680   23.3810 N.3    23  TRP23      -0.1241
     20  CA        71.8690   93.4730   23.2090 C.3    23  TRP23       0.1605
     21  C         71.3550   92.0320   23.2070 C.2    23  TRP23       0.2264
     22  O         72.0650   91.1230   22.7550 O.2    23  TRP23      -0.2867
     23  CB        72.9320   93.6310   24.3050 C.3    23  TRP23       0.0550
     24  CG        73.5840   95.0110   24.3170 C.ar   23  TRP23       0.0003
     25  CD1       73.2450   96.0780   25.1050 C.ar   23  TRP23       0.0946
     26  CD2       74.6300   95.4730   23.4440 C.ar   23  TRP23       0.0152
     27  NE1       74.0030   97.1780   24.7600 N.ar   23  TRP23      -0.2442
     28  CE2       74.8600   96.8330   23.7510 C.ar   23  TRP23       0.0810
     29  CE3       75.3880   94.8710   22.4340 C.ar   23  TRP23       0.0012
     30  CZ2       75.8190   97.6020   23.0730 C.ar   23  TRP23       0.0191
     31  CZ3       76.3420   95.6390   21.7600 C.ar   23  TRP23       0.0001
     32  CH2       76.5440   96.9860   22.0850 C.ar   23  TRP23       0.0015
     33  N         68.8410   91.0000   21.4400 N.3    25  ASN25      -0.1225
     34  CA        68.1870   90.7500   20.1540 C.3    25  ASN25       0.1785
     35  C         68.8440   89.5630   19.4570 C.2    25  ASN25       0.2597
     36  O         70.0700   89.5080   19.3580 O.2    25  ASN25      -0.2718
     37  CB        68.3170   92.0010   19.2790 C.3    25  ASN25       0.1169
     38  CG        67.4260   91.9780   18.0430 C.2    25  ASN25       0.2627
     39  OD1       67.0530   90.9270   17.5230 O.2    25  ASN25      -0.2716
     40  ND2       67.1020   93.1640   17.5490 N.am   25  ASN25      -0.0877
     41  N         68.0550   88.5920   19.0060 N.am   26  GLY26      -0.1957
     42  CA        68.6360   87.4260   18.3620 C.3    26  GLY26       0.1869
     43  C         69.1420   87.7210   16.9510 C.2    26  GLY26       0.2309
     44  O         69.8380   86.8890   16.3480 O.2    26  GLY26      -0.2863
     45  N         71.5340   89.4480   16.0290 N.3    28  PHE28      -0.1227
     46  CA        72.9940   89.4550   15.9780 C.3    28  PHE28       0.1736
     47  C         73.6180   88.0720   15.7020 C.2    28  PHE28       0.2595
     48  O         74.8300   87.9750   15.4330 O.2    28  PHE28      -0.2718
     49  CB        73.5590   90.0600   17.2500 C.3    28  PHE28       0.0547
     50  CG        73.0220   91.4280   17.5450 C.ar   28  PHE28      -0.0202
     51  CD1       73.0770   92.4350   16.5730 C.ar   28  PHE28      -0.0042
     52  CD2       72.4550   91.7090   18.7800 C.ar   28  PHE28      -0.0042
     53  CE1       72.5670   93.7190   16.8210 C.ar   28  PHE28      -0.0003
     54  CE2       71.9400   92.9890   19.0520 C.ar   28  PHE28      -0.0003
     55  CZ        71.9960   93.9990   18.0640 C.ar   28  PHE28      -0.0000
     56  N         72.8170   87.0060   15.8130 N.am   29  LEU29      -0.1980
     57  CA        73.3120   85.6610   15.4940 C.3    29  LEU29       0.1596
     58  C         73.3040   85.4790   13.9470 C.2    29  LEU29       0.2287
     59  O         74.0340   84.6380   13.4010 O.2    29  LEU29      -0.2864
     60  CB        72.4070   84.5810   16.1500 C.3    29  LEU29       0.0297
     61  CG        72.7250   83.1030   15.8540 C.3    29  LEU29       0.0022
     62  CD1       74.1650   82.7480   16.3010 C.3    29  LEU29       0.0001
     63  CD2       71.6670   82.1830   16.5250 C.3    29  LEU29       0.0001
     64  N         71.9440   97.8940    6.7120 N.3   119  VAL119     -0.1231
     65  CA        72.1590   97.4650    8.0970 C.3   119  VAL119      0.1678
     66  C         72.3970   98.6030    9.0850 C.2   119  VAL119      0.2434
     67  O         71.7150   98.6810   10.1210 O.2   119  VAL119     -0.2733
     68  CB        73.2900   96.4130    8.2030 C.3   119  VAL119      0.0265
     69  CG1       73.7920   96.2760    9.6440 C.3   119  VAL119      0.0020
     70  CG2       72.7850   95.0810    7.6990 C.3   119  VAL119      0.0020
     71  N         73.3240   99.5340    8.7760 N.am  120  PRO120     -0.2718
     72  CA        73.5390  100.6160    9.7490 C.3   120  PRO120      0.1535
     73  C         72.2750  101.4390   10.0430 C.2   120  PRO120      0.2598
     74  O         72.0090  101.8150   11.1870 O.2   120  PRO120     -0.2715
     75  CB        74.6270  101.4680    9.0670 C.3   120  PRO120      0.0310
     76  CG        75.3830  100.4640    8.2250 C.3   120  PRO120      0.0237
     77  CD        74.2540   99.6580    7.6310 C.3   120  PRO120      0.0939
     78  N         71.4860  101.7050    9.0130 N.am  121  ALA121     -0.1978
     79  CA        70.2760  102.4960    9.1970 C.3   121  ALA121      0.1597
     80  C         69.2580  101.7630   10.0730 C.2   121  ALA121      0.2287
     81  O         68.6440  102.3750   10.9470 O.2   121  ALA121     -0.2864
     82  CB        69.6670  102.8590    7.8440 C.3   121  ALA121      0.0319
     83  N         69.8890   99.4820   12.3210 N.3   123  MET123     -0.1230
     84  CA        70.3990   99.4880   13.6830 C.3   123  MET123      0.1702
     85  C         70.1850  100.8360   14.3580 C.2   123  MET123      0.2592
     86  O         69.8140  100.9060   15.5380 O.2   123  MET123     -0.2718
     87  CB        71.8780   99.1160   13.6980 C.3   123  MET123      0.0401
     88  CG        72.1550   97.6320   13.5060 C.3   123  MET123      0.0596
     89  SD        71.6260   96.6380   14.9420 S.3   123  MET123     -0.1393
     90  CE        70.1970   95.7940   14.2650 C.3   123  MET123      0.0692
     91  N         70.4350  101.9190   13.6220 N.am  124  LYS124     -0.1980
     92  CA        70.2470  103.2500   14.1880 C.3   124  LYS124      0.1596
     93  C         68.7740  103.5360   14.4670 C.2   124  LYS124      0.2287
     94  O         68.4570  104.2150   15.4410 O.2   124  LYS124     -0.2864
     95  CB        70.8170  104.3140   13.2440 C.3   124  LYS124      0.0298
     96  CG        70.8430  105.7130   13.8340 C.3   124  LYS124      0.0038
     97  CD        71.3650  106.7040   12.8080 C.3   124  LYS124      0.0206
     98  CE        71.3350  108.1160   13.3450 C.3   124  LYS124      0.1093
     99  NZ        71.7360  109.0750   12.2800 N.3   124  LYS124     -0.1314
    100  N         67.5160  102.9020   18.1080 N.3   127  VAL127     -0.1245
    101  CA        68.0250  103.6720   19.2480 C.3   127  VAL127      0.1561
    102  C         67.7570  105.1720   19.0460 C.2   127  VAL127      0.2260
    103  O         67.0790  105.5530   18.0970 O.2   127  VAL127     -0.2867
    104  CB        69.5560  103.4430   19.4450 C.3   127  VAL127      0.0252
    105  CG1       69.8570  101.9420   19.7810 C.3   127  VAL127      0.0019
    106  CG2       70.3240  103.8700   18.2060 C.3   127  VAL127      0.0019
    107  N         73.5130  107.9690   18.9770 N.3   132  ALA132     -0.1231
    108  CA        74.3330  107.1310   18.1000 C.3   132  ALA132      0.1694
    109  C         75.3800  108.0190   17.4260 C.2   132  ALA132      0.2591
    110  O         76.5720  107.6960   17.3920 O.2   132  ALA132     -0.2718
    111  CB        73.4690  106.4510   17.0550 C.3   132  ALA132      0.0304
    112  N         74.9280  109.1540   16.9030 N.am  133  GLU133     -0.1979
    113  CA        75.8230  110.1180   16.2640 C.3   133  GLU133      0.1602
    114  C         76.9020  110.5970   17.2360 C.2   133  GLU133      0.2287
    115  O         78.0850  110.6630   16.8810 O.2   133  GLU133     -0.2864
    116  CB        75.0170  111.3010   15.7400 C.3   133  GLU133      0.0415
    117  CG        74.1240  110.9310   14.5720 C.3   133  GLU133      0.1163
    118  CD        73.0810  111.9880   14.2600 C.2   133  GLU133      0.3649
    119  OE1       73.0980  113.0660   14.9070 O.co2 133  GLU133     -0.2457
    120  OE2       72.2330  111.7370   13.3710 O.co2 133  GLU133     -0.2457
    121  N         79.4000  107.8690   17.6920 N.3   136  TYR136     -0.1241
    122  CA        80.2810  107.7380   16.5390 C.3   136  TYR136      0.1605
    123  C         81.3860  108.8070   16.5510 C.2   136  TYR136      0.2264
    124  O         82.5410  108.5340   16.2100 O.2   136  TYR136     -0.2867
    125  CB        79.4800  107.8270   15.2420 C.3   136  TYR136      0.0534
    126  CG        80.3310  107.6220   14.0020 C.ar  136  TYR136     -0.0201
    127  CD1       81.0990  106.4670   13.8370 C.ar  136  TYR136     -0.0009
    128  CD2       80.3590  108.5780   12.9890 C.ar  136  TYR136     -0.0009
    129  CE1       81.8650  106.2660   12.6950 C.ar  136  TYR136      0.0417
    130  CE2       81.1280  108.3910   11.8440 C.ar  136  TYR136      0.0417
    131  CZ        81.8770  107.2360   11.6970 C.ar  136  TYR136      0.1957
    132  OH        82.6300  107.0490   10.5520 O.3   136  TYR136     -0.2866
    133  N         70.9490   78.7680   13.2610 N.3   193  LYS193     -0.1231
    134  CA        69.5940   78.5880   13.7930 C.3   193  LYS193      0.1678
    135  C         69.8370   78.5980   15.3060 C.2   193  LYS193      0.2434
    136  O         70.7820   77.9710   15.8100 O.2   193  LYS193     -0.2733
    137  CB        68.9470   77.2680   13.3510 C.3   193  LYS193      0.0284
    138  CG        68.7600   77.1100   11.8410 C.3   193  LYS193      0.0035
    139  CD        68.0420   78.3020   11.2020 C.3   193  LYS193      0.0206
    140  CE        68.0630   78.1980    9.6470 C.3   193  LYS193      0.1093
    141  NZ        67.8060   79.5210    8.9890 N.3   193  LYS193     -0.1314
    142  N         68.9870   79.3090   16.0550 N.am  194  PRO194     -0.2718
    143  CA        69.1600   79.3900   17.4980 C.3   194  PRO194      0.1535
    144  C         68.9980   78.1090   18.2960 C.2   194  PRO194      0.2598
    145  O         68.3790   77.1500   17.8470 O.2   194  PRO194     -0.2715
    146  CB        68.1480   80.4660   17.9120 C.3   194  PRO194      0.0310
    147  CG        67.0770   80.3570   16.9140 C.3   194  PRO194      0.0237
    148  CD        67.7810   80.0330   15.6080 C.3   194  PRO194      0.0939
    149  N         69.5360   78.1230   19.5080 N.am  195  LEU195     -0.1978
    150  CA        69.4290   76.9720   20.4130 C.3   195  LEU195      0.1596
    151  C         68.0260   76.9860   21.0230 C.2   195  LEU195      0.2287
    152  O         67.6400   77.9600   21.6820 O.2   195  LEU195     -0.2864
    153  CB        70.4700   77.0950   21.5220 C.3   195  LEU195      0.0297
    154  CG        71.9280   77.1270   21.0230 C.3   195  LEU195      0.0022
    155  CD1       72.8460   77.4670   22.1990 C.3   195  LEU195      0.0001
    156  CD2       72.3280   75.7910   20.4070 C.3   195  LEU195      0.0001
    157  N         69.3850   84.7440   25.3760 N.3   200  ALA200     -0.1245
    158  CA        70.6860   85.3490   25.1030 C.3   200  ALA200      0.1562
    159  C         71.5170   85.3870   26.4060 C.2   200  ALA200      0.2260
    160  O         72.7240   85.1630   26.3760 O.2   200  ALA200     -0.2867
    161  CB        70.5030   86.7770   24.5270 C.3   200  ALA200      0.0290
    162  N         72.9580   81.8480   27.0280 N.3   203  SER203     -0.1202
    163  CA        74.0420   81.5980   26.0670 C.3   203  SER203      0.2020
    164  C         75.3080   82.3560   26.4850 C.2   203  SER203      0.2618
    165  O         76.4330   81.8550   26.3360 O.2   203  SER203     -0.2717
    166  CB        73.6550   82.1210   24.6850 C.3   203  SER203      0.2103
    167  OG        72.8000   81.2280   24.0680 O.3   203  SER203     -0.2182
    168  N         75.1220   83.5990   26.9250 N.am  204  LEU204     -0.1979
    169  CA        76.2360   84.4450   27.3390 C.3   204  LEU204      0.1596
    170  C         77.0300   83.7980   28.4720 C.2   204  LEU204      0.2287
    171  O         78.2580   83.8650   28.4790 O.2   204  LEU204     -0.2864
    172  CB        75.7400   85.8360   27.7940 C.3   204  LEU204      0.0297
    173  CG        76.8260   86.8730   28.1360 C.3   204  LEU204      0.0022
    174  CD1       77.6250   87.1910   26.8630 C.3   204  LEU204      0.0001
    175  CD2       76.1520   88.1500   28.6650 C.3   204  LEU204      0.0001
    176  N         79.1870   81.1130   26.8660 N.3   207  ILE207     -0.1245
    177  CA        80.2760   81.7380   26.1240 C.3   207  ILE207      0.1561
    178  C         81.3380   82.3140   27.1160 C.2   207  ILE207      0.2260
    179  O         82.5550   82.2850   26.8460 O.2   207  ILE207     -0.2867
    180  CB        79.7060   82.7920   25.1550 C.3   207  ILE207      0.0252
    181  CG1       79.1080   82.0470   23.9430 C.3   207  ILE207      0.0019
    182  CG2       80.7610   83.8520   24.7410 C.3   207  ILE207      0.0019
    183  CD1       78.3300   82.9180   23.0580 C.3   207  ILE207      0.0001
@<TRIPOS>BOND
     1    64    65    1
     2    77    76    1
     3    77    71    1
     4    70    68    1
     5    82    79    1
     6    65    68    1
     7    65    66    1
     8    68    69    1
     9    76    75    1
    10    71    66   am
    11    71    72    1
    12   141   140    1
    13    78    79    1
    14    78    73   am
    15    75    72    1
    16    66    67    2
    17    79    80    1
    18   140   139    1
    19    72    73    1
    20    73    74    2
    21    80    81    2
    22   132   131    1
    23   139   138    1
    24   131   130   ar
    25   131   129   ar
    26   138   137    1
    27   130   128   ar
    28    99    98    1
    29    83    84    1
    30   129   127   ar
    31    97    98    1
    32    97    96    1
    33   128   126   ar
    34    95    96    1
    35    95    92    1
    36   133   134    1
    37   137   134    1
    38   120   118   ar
    39    59    58    2
    40    88    87    1
    41    88    89    1
    42    91    92    1
    43    91    85   am
    44    84    87    1
    45    84    85    1
    46   134   135    1
    47   127   126   ar
    48    58    57    1
    49   126   125    1
    50    92    93    1
    51   118   117    1
    52   118   119   ar
    53    90    89    1
    54    85    86    2
    55    93    94    2
    56   117   116    1
    57   125   122    1
    58   135   136    2
    59   135   142   am
    60    48    47    2
    61    57    56    1
    62    57    60    1
    63   148   142    1
    64   148   147    1
    65    47    56   am
    66    47    46    1
    67   116   113    1
    68    61    60    1
    69    61    62    1
    70    61    63    1
    71    46    45    1
    72    46    49    1
    73   142   143    1
    74   124   123    2
    75   113   112    1
    76   113   114    1
    77    44    43    2
    78   122   123    1
    79   122   121    1
    80    51    53   ar
    81    51    50   ar
    82    53    55   ar
    83   115   114    2
    84   112   109   am
    85   147   146    1
    86    43    42    1
    87   111   108    1
    88    49    50    1
    89   110   109    2
    90   109   108    1
    91   143   146    1
    92   143   144    1
    93    39    38    2
    94    50    52   ar
    95    40    38   am
    96   145   144    2
    97    38    37    1
    98    55    54   ar
    99   103   102    2
   100   108   107    1
   101   100   101    1
   102   106   104    1
   103   144   149   am
   104    42    41    1
   105    52    54   ar
   106     9    11   ar
   107     9     7   ar
   108    11    10   ar
   109    41    35   am
   110   102   101    1
   111   101   104    1
   112    37    34    1
   113    36    35    2
   114   104   105    1
   115    35    34    1
   116   149   150    1
   117     7     6   ar
   118    10     8   ar
   119    34    33    1
   120   156   154    1
   121   150   151    1
   122   150   153    1
   123     6     8   ar
   124     6     5    1
   125   154   153    1
   126   154   155    1
   127   151   152    2
   128    18    16    1
   129    17    16    1
   130    31    32   ar
   131    31    29   ar
   132    16    13    1
   133     5     2    1
   134    32    30   ar
   135    13    14    1
   136    13    12    1
   137    29    26   ar
   138    22    21    2
   139    14    15    2
   140   183   181    1
   141    30    28   ar
   142     2     3    1
   143     2     1    1
   144     4     3    2
   145    21    20    1
   146    20    19    1
   147    20    23    1
   148    26    28   ar
   149    26    24   ar
   150    28    27   ar
   151   181   180    1
   152   167   166    1
   153    23    24    1
   154    24    25   ar
   155   161   158    1
   156   166   163    1
   157   182   180    1
   158    27    25   ar
   159   158   157    1
   160   158   159    1
   161   180   177    1
   162   163   164    1
   163   163   162    1
   164   177   176    1
   165   177   178    1
   166   165   164    2
   167   160   159    2
   168   164   168   am
   169   179   178    2
   170   174   173    1
   171   168   169    1
   172   169   172    1
   173   169   170    1
   174   172   173    1
   175   173   175    1
   176   170   171    2
