@<TRIPOS>MOLECULE
tmp/1pprB04.pdb
 216 203 0 0 0
SMALL
GASTEIGER

@<TRIPOS>ATOM
      1  N         83.8400   83.8220    4.6700 N.3    41  LEU41      -0.1245
      2  CA        85.0580   83.1330    5.1010 C.3    41  LEU41       0.1561
      3  C         86.3270   83.9940    4.8160 C.2    41  LEU41       0.2260
      4  O         87.3160   83.9460    5.5770 O.2    41  LEU41      -0.2867
      5  CB        85.1460   81.7520    4.4600 C.3    41  LEU41       0.0270
      6  CG        86.3240   80.8750    4.8850 C.3    41  LEU41       0.0019
      7  CD1       86.1850   80.4760    6.3540 C.3    41  LEU41       0.0001
      8  CD2       86.4130   79.6420    3.9810 C.3    41  LEU41       0.0001
      9  N         86.5520   86.3670    7.7240 N.3    44  ILE44      -0.1245
     10  CA        87.0240   85.6630    8.9280 C.3    44  ILE44       0.1561
     11  C         88.5490   85.4800    8.7880 C.2    44  ILE44       0.2260
     12  O         89.3100   85.6580    9.7530 O.2    44  ILE44      -0.2867
     13  CB        86.3400   84.2560    9.0890 C.3    44  ILE44       0.0252
     14  CG1       84.8160   84.4010    9.2460 C.3    44  ILE44       0.0019
     15  CG2       86.9570   83.4750   10.2500 C.3    44  ILE44       0.0019
     16  CD1       84.3820   85.4760   10.2290 C.3    44  ILE44       0.0001
     17  N         91.4720   86.4010   11.3360 N.3    48  ILE48      -0.1245
     18  CA        92.3930   85.3900   11.8530 C.3    48  ILE48       0.1561
     19  C         93.8470   85.8790   11.7230 C.2    48  ILE48       0.2260
     20  O         94.6440   85.8020   12.6700 O.2    48  ILE48      -0.2867
     21  CB        92.1850   84.0200   11.1250 C.3    48  ILE48       0.0252
     22  CG1       90.8320   83.4090   11.5530 C.3    48  ILE48       0.0019
     23  CG2       93.3110   83.0500   11.4820 C.3    48  ILE48       0.0019
     24  CD1       90.4210   82.1730   10.7920 C.3    48  ILE48       0.0001
     25  N         94.0980   60.8490   14.2840 N.3   173  LEU173     -0.1245
     26  CA        92.7400   61.3940   14.3960 C.3   173  LEU173      0.1561
     27  C         92.2800   61.9390   13.0450 C.2   173  LEU173      0.2260
     28  O         91.1580   61.6730   12.6020 O.2   173  LEU173     -0.2867
     29  CB        92.7080   62.5310   15.4280 C.3   173  LEU173      0.0270
     30  CG        91.4580   63.4290   15.3880 C.3   173  LEU173      0.0019
     31  CD1       90.2340   62.6000   15.7230 C.3   173  LEU173      0.0001
     32  CD2       91.6140   64.5590   16.3690 C.3   173  LEU173      0.0001
     33  N         89.1240   60.6780   10.6730 N.3   177  SER177     -0.1217
     34  CA        87.9520   61.5360   10.5830 C.3   177  SER177      0.1889
     35  C         87.7480   62.3890    9.3350 C.2   177  SER177      0.2288
     36  O         86.7330   63.0820    9.2160 O.2   177  SER177     -0.2866
     37  CB        87.8900   62.4260   11.8240 C.3   177  SER177      0.2089
     38  OG        89.0140   63.2820   11.8800 O.3   177  SER177     -0.2183
     39  N         84.4620   61.9290    7.3060 N.3   180  PHE180     -0.1227
     40  CA        83.3450   62.5940    8.0030 C.3   180  PHE180      0.1736
     41  C         83.4130   64.1040    7.7240 C.2   180  PHE180      0.2595
     42  O         82.4030   64.7160    7.3810 O.2   180  PHE180     -0.2718
     43  CB        83.4580   62.3000    9.5170 C.3   180  PHE180      0.0547
     44  CG        82.6440   63.2080   10.4040 C.ar  180  PHE180     -0.0202
     45  CD1       81.2450   63.1430   10.4200 C.ar  180  PHE180     -0.0042
     46  CD2       83.2850   64.0640   11.3020 C.ar  180  PHE180     -0.0042
     47  CE1       80.4910   63.9280   11.3410 C.ar  180  PHE180     -0.0003
     48  CE2       82.5600   64.8370   12.2100 C.ar  180  PHE180     -0.0003
     49  CZ        81.1550   64.7680   12.2320 C.ar  180  PHE180     -0.0000
     50  N         84.6160   64.6900    7.8190 N.am  181  LEU181     -0.1980
     51  CA        84.7900   66.1250    7.5900 C.3   181  LEU181      0.1596
     52  C         84.3390   66.5380    6.1930 C.2   181  LEU181      0.2287
     53  O         83.7260   67.5930    6.0180 O.2   181  LEU181     -0.2864
     54  CB        86.2450   66.5410    7.8210 C.3   181  LEU181      0.0297
     55  CG        86.5380   68.0420    7.9290 C.3   181  LEU181      0.0022
     56  CD1       86.2290   68.5170    9.3540 C.3   181  LEU181      0.0001
     57  CD2       88.0250   68.3210    7.5710 C.3   181  LEU181      0.0001
     58  N         80.2700   66.8630    5.7880 N.3   184  ILE184     -0.1245
     59  CA        79.5500   67.9650    6.4250 C.3   184  ILE184      0.1561
     60  C         79.2630   69.0790    5.4010 C.2   184  ILE184      0.2260
     61  O         80.1240   69.4050    4.5830 O.2   184  ILE184     -0.2867
     62  CB        80.4000   68.5290    7.5960 C.3   184  ILE184      0.0252
     63  CG1       80.5020   67.4550    8.7000 C.3   184  ILE184      0.0019
     64  CG2       79.8060   69.8640    8.1050 C.3   184  ILE184      0.0019
     65  CD1       81.6000   67.7250    9.7370 C.3   184  ILE184      0.0001
     66  N         79.4390   72.4380    4.7780 N.3   186  TRP186     -0.1241
     67  CA        80.0430   73.6480    5.3240 C.3   186  TRP186      0.1605
     68  C         79.4010   74.9510    4.8940 C.2   186  TRP186      0.2264
     69  O         79.6260   75.9820    5.5350 O.2   186  TRP186     -0.2867
     70  CB        81.5400   73.6820    5.0060 C.3   186  TRP186      0.0550
     71  CG        82.2330   72.5610    5.6560 C.ar  186  TRP186      0.0003
     72  CD1       82.5960   71.3730    5.0800 C.ar  186  TRP186      0.0946
     73  CD2       82.5630   72.4600    7.0480 C.ar  186  TRP186      0.0152
     74  NE1       83.1260   70.5340    6.0350 N.ar  186  TRP186     -0.2442
     75  CE2       83.1190   71.1720    7.2510 C.ar  186  TRP186      0.0810
     76  CE3       82.4380   73.3350    8.1470 C.ar  186  TRP186      0.0012
     77  CZ2       83.5580   70.7240    8.5150 C.ar  186  TRP186      0.0191
     78  CZ3       82.8740   72.8970    9.4010 C.ar  186  TRP186      0.0001
     79  CH2       83.4260   71.5970    9.5730 C.ar  186  TRP186      0.0015
     80  N         88.5210   80.4200   29.3620 N.3   213  MET213     -0.1245
     81  CA        89.5070   79.4420   28.8950 C.3   213  MET213      0.1570
     82  C         90.5340   80.1000   27.9620 C.2   213  MET213      0.2261
     83  O         91.7340   79.8310   28.0720 O.2   213  MET213     -0.2867
     84  CB        88.8240   78.2630   28.1720 C.3   213  MET213      0.0387
     85  CG        89.7930   77.2520   27.6280 C.3   213  MET213      0.0595
     86  SD        88.9510   75.7650   27.0210 S.3   213  MET213     -0.1393
     87  CE        90.0750   75.2250   25.7380 C.3   213  MET213      0.0692
     88  N         97.8920   79.6290   21.1400 N.3   222  LEU222     -0.1245
     89  CA        96.7180   80.2490   20.5040 C.3   222  LEU222      0.1561
     90  C         97.0920   80.8620   19.1680 C.2   222  LEU222      0.2260
     91  O         96.3680   80.7170   18.1710 O.2   222  LEU222     -0.2867
     92  CB        96.1380   81.3570   21.3810 C.3   222  LEU222      0.0270
     93  CG        95.1320   81.0240   22.4690 C.3   222  LEU222      0.0019
     94  CD1       94.5940   82.3430   22.9990 C.3   222  LEU222      0.0001
     95  CD2       93.9730   80.1790   21.8870 C.3   222  LEU222      0.0001
     96  N         97.6380   78.2160   16.6140 N.3   225  ALA225     -0.1231
     97  CA        96.3660   77.6080   16.1940 C.3   225  ALA225      0.1694
     98  C         95.6580   78.5170   15.1830 C.2   225  ALA225      0.2591
     99  O         95.0750   78.0320   14.2060 O.2   225  ALA225     -0.2718
    100  CB        95.4680   77.3290   17.4040 C.3   225  ALA225      0.0304
    101  N         95.7050   79.8320   15.4060 N.am  226  ALA226     -0.1980
    102  CA        95.1050   80.7960   14.4660 C.3   226  ALA226      0.1597
    103  C         95.8340   80.7180   13.1140 C.2   226  ALA226      0.2287
    104  O         95.2000   80.7140   12.0510 O.2   226  ALA226     -0.2864
    105  CB        95.2040   82.2190   15.0330 C.3   226  ALA226      0.0319
    106  N         94.7970   77.7770   11.0980 N.3   229  HIS229     -0.1241
    107  CA        93.4870   77.9530   10.4490 C.3   229  HIS229      0.1621
    108  C         93.6100   78.8260    9.2020 C.2   229  HIS229      0.2264
    109  O         92.9520   78.5740    8.1830 O.2   229  HIS229     -0.2867
    110  CB        92.4410   78.5520   11.4120 C.3   229  HIS229      0.0745
    111  CG        91.8500   77.5540   12.3650 C.ar  229  HIS229      0.0817
    112  ND1       92.4130   77.2720   13.5920 N.ar  229  HIS229     -0.2268
    113  CD2       90.7590   76.7580   12.2620 C.ar  229  HIS229      0.1154
    114  CE1       91.6970   76.3420   14.2030 C.ar  229  HIS229      0.1986
    115  NE2       90.6890   76.0110   13.4180 N.ar  229  HIS229     -0.2212
    116  N         92.4380   77.6250    5.4510 N.3   233  ILE233     -0.1245
    117  CA        91.4920   78.3370    4.6120 C.3   233  ILE233      0.1561
    118  C         92.0590   78.4720    3.1910 C.2   233  ILE233      0.2260
    119  O         91.3160   78.4440    2.2150 O.2   233  ILE233     -0.2867
    120  CB        91.1520   79.7250    5.2120 C.3   233  ILE233      0.0252
    121  CG1       90.2450   79.5510    6.4480 C.3   233  ILE233      0.0019
    122  CG2       90.5000   80.6270    4.1580 C.3   233  ILE233      0.0019
    123  CD1       90.0940   80.7940    7.2620 C.3   233  ILE233      0.0001
    124  N         94.2210   69.9700    7.6890 N.3   247  TYR247     -0.1241
    125  CA        93.2770   69.5130    8.7150 C.3   247  TYR247      0.1605
    126  C         94.0750   68.9220    9.8910 C.2   247  TYR247      0.2264
    127  O         93.8410   69.2620   11.0450 O.2   247  TYR247     -0.2867
    128  CB        92.3290   68.4670    8.1100 C.3   247  TYR247      0.0534
    129  CG        91.3890   67.8080    9.1180 C.ar  247  TYR247     -0.0201
    130  CD1       90.6630   68.5820   10.0550 C.ar  247  TYR247     -0.0009
    131  CD2       91.1870   66.4260    9.1000 C.ar  247  TYR247     -0.0009
    132  CE1       89.7400   67.9630   10.9510 C.ar  247  TYR247      0.0417
    133  CE2       90.2940   65.8070    9.9750 C.ar  247  TYR247      0.0417
    134  CZ        89.5710   66.5810   10.8930 C.ar  247  TYR247      0.1957
    135  OH        88.6750   65.9460   11.7150 O.3   247  TYR247     -0.2866
    136  N         94.2310   70.1760   13.8600 N.3   251  ASN251     -0.1240
    137  CA        93.9630   69.3040   15.0140 C.3   251  ASN251      0.1653
    138  C         95.1250   69.2830   16.0110 C.2   251  ASN251      0.2266
    139  O         94.9130   69.3270   17.2240 O.2   251  ASN251     -0.2867
    140  CB        93.6280   67.8710   14.5740 C.3   251  ASN251      0.1155
    141  CG        92.1970   67.7310   14.0650 C.2   251  ASN251      0.2627
    142  OD1       91.3130   68.5210   14.4310 O.2   251  ASN251     -0.2716
    143  ND2       91.9610   66.7330   13.2160 N.am  251  ASN251     -0.0877
    144  N         95.1580   72.6290   17.9010 N.3   254  LEU254     -0.1245
    145  CA        94.0840   72.7320   18.8970 C.3   254  LEU254      0.1561
    146  C         94.3460   71.8280   20.0970 C.2   254  LEU254      0.2260
    147  O         94.0560   72.2000   21.2550 O.2   254  LEU254     -0.2867
    148  CB        92.7120   72.4670   18.2650 C.3   254  LEU254      0.0270
    149  CG        92.2700   73.6110   17.3230 C.3   254  LEU254      0.0019
    150  CD1       90.8890   73.2900   16.7060 C.3   254  LEU254      0.0001
    151  CD2       92.2240   74.9330   18.0700 C.3   254  LEU254      0.0001
    152  N         96.5990   73.7060   22.3540 N.3   257  VAL257     -0.1231
    153  CA        95.8670   74.7420   23.0730 C.3   257  VAL257      0.1692
    154  C         95.1250   74.1220   24.2860 C.2   257  VAL257      0.2591
    155  O         95.1770   74.6590   25.4070 O.2   257  VAL257     -0.2718
    156  CB        94.8210   75.4480   22.1450 C.3   257  VAL257      0.0266
    157  CG1       93.8280   76.2700   22.9840 C.3   257  VAL257      0.0020
    158  CG2       95.5330   76.3740   21.1580 C.3   257  VAL257      0.0020
    159  N         94.4370   72.9920   24.0650 N.am  258  ILE258     -0.1980
    160  CA        93.6770   72.3250   25.1330 C.3   258  ILE258      0.1595
    161  C         94.6030   71.9070   26.2710 C.2   258  ILE258      0.2287
    162  O         94.2690   72.0600   27.4460 O.2   258  ILE258     -0.2864
    163  CB        92.9310   71.0370   24.6280 C.3   258  ILE258      0.0276
    164  CG1       91.9660   71.3510   23.4780 C.3   258  ILE258      0.0022
    165  CG2       92.2200   70.3400   25.7990 C.3   258  ILE258      0.0022
    166  CD1       91.0100   72.4460   23.7520 C.3   258  ILE258      0.0001
    167  N         82.7250   72.4500   28.7020 N.3   270  TYR270     -0.1241
    168  CA        81.8630   71.3350   28.3100 C.3   270  TYR270      0.1605
    169  C         80.5400   71.2940   29.1090 C.2   270  TYR270      0.2264
    170  O         79.4760   71.1600   28.5360 O.2   270  TYR270     -0.2867
    171  CB        82.6230   70.0050   28.4290 C.3   270  TYR270      0.0534
    172  CG        81.7890   68.8070   28.0750 C.ar  270  TYR270     -0.0201
    173  CD1       81.5980   68.4390   26.7290 C.ar  270  TYR270     -0.0009
    174  CD2       81.1320   68.0710   29.0750 C.ar  270  TYR270     -0.0009
    175  CE1       80.7700   67.3620   26.3850 C.ar  270  TYR270      0.0417
    176  CE2       80.2860   66.9950   28.7490 C.ar  270  TYR270      0.0417
    177  CZ        80.1190   66.6500   27.4010 C.ar  270  TYR270      0.1957
    178  OH        79.3160   65.5700   27.0770 O.3   270  TYR270     -0.2866
    179  N         80.7880   58.9210   10.8390 N.3   294  ALA294     -0.1245
    180  CA        80.6350   59.7440   12.0440 C.3   294  ALA294      0.1562
    181  C         81.1320   58.9340   13.2620 C.2   294  ALA294      0.2260
    182  O         81.8540   59.4540   14.1210 O.2   294  ALA294     -0.2867
    183  CB        79.1660   60.1680   12.2220 C.3   294  ALA294      0.0290
    184  N         84.9230   58.6980   13.2480 N.3   297  ALA297     -0.1231
    185  CA        85.5130   59.9730   13.6830 C.3   297  ALA297      0.1694
    186  C         85.4220   60.1050   15.2040 C.2   297  ALA297      0.2591
    187  O         86.3760   60.5340   15.8530 O.2   297  ALA297     -0.2718
    188  CB        84.7880   61.1460   13.0140 C.3   297  ALA297      0.0304
    189  N         84.2570   59.7610   15.7610 N.am  298  ALA298     -0.1980
    190  CA        84.0410   59.8520   17.1960 C.3   298  ALA298      0.1597
    191  C         84.9780   58.9270   17.9640 C.2   298  ALA298      0.2287
    192  O         85.5850   59.3390   18.9560 O.2   298  ALA298     -0.2864
    193  CB        82.5810   59.5480   17.5290 C.3   298  ALA298      0.0319
    194  N         88.3280   60.3420   17.9720 N.3   301  PHE301     -0.1227
    195  CA        88.4200   61.4780   18.8940 C.3   301  PHE301      0.1736
    196  C         88.5950   61.0170   20.3410 C.2   301  PHE301      0.2595
    197  O         89.4250   61.5570   21.0640 O.2   301  PHE301     -0.2718
    198  CB        87.1900   62.3940   18.7810 C.3   301  PHE301      0.0547
    199  CG        87.1740   63.4960   19.7990 C.ar  301  PHE301     -0.0202
    200  CD1       87.9340   64.6530   19.6020 C.ar  301  PHE301     -0.0042
    201  CD2       86.4360   63.3610   20.9820 C.ar  301  PHE301     -0.0042
    202  CE1       87.9720   65.6650   20.5770 C.ar  301  PHE301     -0.0003
    203  CE2       86.4640   64.3660   21.9600 C.ar  301  PHE301     -0.0003
    204  CZ        87.2420   65.5230   21.7520 C.ar  301  PHE301     -0.0000
    205  N         87.8080   60.0410   20.7880 N.am  302  TYR302     -0.1976
    206  CA        87.9280   59.5780   22.1840 C.3   302  TYR302      0.1639
    207  C         89.3010   58.9310   22.4660 C.2   302  TYR302      0.2290
    208  O         89.7670   58.8810   23.6140 O.2   302  TYR302     -0.2864
    209  CB        86.7450   58.6680   22.5500 C.3   302  TYR302      0.0560
    210  CG        85.4370   59.4520   22.6320 C.ar  302  TYR302     -0.0198
    211  CD1       85.2840   60.5230   23.5360 C.ar  302  TYR302     -0.0009
    212  CD2       84.3690   59.1610   21.7680 C.ar  302  TYR302     -0.0009
    213  CE1       84.0930   61.2880   23.5720 C.ar  302  TYR302      0.0417
    214  CE2       83.1740   59.9270   21.8000 C.ar  302  TYR302      0.0417
    215  CZ        83.0480   60.9810   22.6960 C.ar  302  TYR302      0.1957
    216  OH        81.8790   61.7150   22.7050 O.3   302  TYR302     -0.2866
@<TRIPOS>BOND
     1   119   118    2
     2   118   117    1
     3     8     6    1
     4   122   120    1
     5     5     6    1
     6     5     2    1
     7    61    60    2
     8   117   120    1
     9   117   116    1
    10     1     2    1
    11    66    67    1
    12     3     2    1
    13     3     4    2
    14     6     7    1
    15    68    67    1
    16    68    69    2
    17    70    67    1
    18    70    71    1
    19    72    71   ar
    20    72    74   ar
    21   120   121    1
    22    60    59    1
    23    71    73   ar
    24    58    59    1
    25    53    52    2
    26    74    75   ar
    27    52    51    1
    28    59    62    1
    29   121   123    1
    30    73    75   ar
    31    73    76   ar
    32    75    77   ar
    33    39    40    1
    34    42    41    2
    35    57    55    1
    36    51    50    1
    37    51    54    1
    38    62    64    1
    39    62    63    1
    40   124   125    1
    41     9    10    1
    42    41    50   am
    43    41    40    1
    44    54    55    1
    45    55    56    1
    46    40    43    1
    47   128   125    1
    48   128   129    1
    49    76    78   ar
    50   109   108    2
    51    77    79   ar
    52    63    65    1
    53   125   126    1
    54    11    10    1
    55    11    12    2
    56    10    13    1
    57    13    14    1
    58    13    15    1
    59   131   129   ar
    60   131   133   ar
    61   129   130   ar
    62   108   107    1
    63    36    35    2
    64    14    16    1
    65    35    34    1
    66    78    79   ar
    67    43    44    1
    68   126   127    2
    69   133   134   ar
    70   130   132   ar
    71    44    45   ar
    72    44    46   ar
    73    45    47   ar
    74   107   106    1
    75   107   110    1
    76    34    33    1
    77    34    37    1
    78    24    22    1
    79   179   180    1
    80   134   132   ar
    81   134   135    1
    82    21    23    1
    83    21    22    1
    84    21    18    1
    85    46    48   ar
    86    17    18    1
    87    47    49   ar
    88   110   111    1
    89    19    18    1
    90    19    20    2
    91    37    38    1
    92   180   183    1
    93   180   181    1
    94   104   103    2
    95    48    49   ar
    96   113   111   ar
    97   113   115   ar
    98   111   112   ar
    99    28    27    2
   100   188   185    1
   101    27    26    1
   102   103   102    1
   103   143   141   am
   104   184   185    1
   105   181   182    2
   106   115   114   ar
   107   112   114   ar
   108   185   186    1
   109   136   137    1
   110   141   142    2
   111   141   140    1
   112    99    98    2
   113    25    26    1
   114    26    29    1
   115   102   105    1
   116   102   101    1
   117   140   137    1
   118   137   138    1
   119    98   101   am
   120    98    97    1
   121   186   189   am
   122   186   187    2
   123    30    29    1
   124    30    31    1
   125    30    32    1
   126   189   190    1
   127   138   139    2
   128    97    96    1
   129    97   100    1
   130   150   149    1
   131   190   193    1
   132   190   191    1
   133   149   151    1
   134   149   148    1
   135   144   145    1
   136   191   192    2
   137   194   195    1
   138    91    90    2
   139   148   145    1
   140   198   195    1
   141   198   199    1
   142   195   196    1
   143   145   146    1
   144    90    89    1
   145   200   199   ar
   146   200   202   ar
   147   199   201   ar
   148   146   147    2
   149   196   205   am
   150   196   197    2
   151    89    88    1
   152    89    92    1
   153   202   204   ar
   154   205   206    1
   155   201   203   ar
   156   158   156    1
   157    92    93    1
   158   204   203   ar
   159   212   214   ar
   160   212   210   ar
   161   214   215   ar
   162    95    93    1
   163   156   157    1
   164   156   153    1
   165   206   207    1
   166   206   209    1
   167   152   153    1
   168   207   208    2
   169    93    94    1
   170   209   210    1
   171   210   211   ar
   172   215   216    1
   173   215   213   ar
   174   153   154    1
   175   164   166    1
   176   164   163    1
   177   211   213   ar
   178   159   154   am
   179   159   160    1
   180   154   155    2
   181   163   160    1
   182   163   165    1
   183   160   161    1
   184    87    86    1
   185   161   162    2
   186   175   173   ar
   187   175   177   ar
   188   173   172   ar
   189    86    85    1
   190   178   177    1
   191   177   176   ar
   192    85    84    1
   193    82    83    2
   194    82    81    1
   195   172   171    1
   196   172   174   ar
   197    84    81    1
   198   168   171    1
   199   168   167    1
   200   168   169    1
   201   170   169    2
   202   176   174   ar
   203    81    80    1
