@<TRIPOS>MOLECULE
tmp/1pprB09.pdb
 212 205 0 0 0
SMALL
GASTEIGER

@<TRIPOS>ATOM
      1  N         72.5100   86.2850   13.2440 N.3    30  GLN30      -0.1231
      2  CA        72.3960   86.1710   11.7890 C.3    30  GLN30       0.1698
      3  C         73.4170   86.9910   11.0080 C.2    30  GLN30       0.2592
      4  O         74.0260   87.9160   11.5560 O.2    30  GLN30      -0.2718
      5  CB        70.9960   86.5910   11.3470 C.3    30  GLN30       0.0381
      6  CG        69.8700   85.8310   12.0630 C.3    30  GLN30       0.0905
      7  CD        70.0180   84.3230   11.9420 C.2    30  GLN30       0.2608
      8  OE1       70.3610   83.8010   10.8830 O.2    30  GLN30      -0.2717
      9  NE2       69.7650   83.6150   13.0400 N.am   30  GLN30      -0.0878
     10  N         73.6040   86.6410    9.7290 N.am   31  ALA31      -0.1966
     11  CA        74.5300   87.3840    8.8580 C.3    31  ALA31       0.1713
     12  C         73.9260   88.7660    8.6580 C.2    31  ALA31       0.2458
     13  O         72.6980   88.9220    8.6970 O.2    31  ALA31      -0.2730
     14  CB        74.6820   86.6970    7.5290 C.3    31  ALA31       0.0333
     15  N         74.7730   89.7930    8.4430 N.am   32  PRO32      -0.2727
     16  CA        74.2740   91.1560    8.2440 C.3    32  PRO32       0.1402
     17  C         73.7610   91.3630    6.8130 C.2    32  PRO32       0.2269
     18  O         74.2110   92.2750    6.1080 O.2    32  PRO32      -0.2865
     19  CB        75.5110   92.0090    8.5650 C.3    32  PRO32       0.0296
     20  CG        76.6320   91.1670    8.0380 C.3    32  PRO32       0.0237
     21  CD        76.2520   89.7620    8.4500 C.3    32  PRO32       0.0939
     22  N         73.2500   85.5510    3.5580 N.3    35  LEU35      -0.1231
     23  CA        74.3980   84.7360    3.9390 C.3    35  LEU35       0.1693
     24  C         75.1910   84.3630    2.6810 C.2    35  LEU35       0.2592
     25  O         74.6290   83.8590    1.7110 O.2    35  LEU35      -0.2718
     26  CB        73.9420   83.4530    4.6560 C.3    35  LEU35       0.0284
     27  CG        74.9940   82.3950    5.0400 C.3    35  LEU35       0.0019
     28  CD1       75.9000   82.9470    6.1400 C.3    35  LEU35       0.0001
     29  CD2       74.2980   81.1030    5.5130 C.3    35  LEU35       0.0001
     30  N         76.4950   84.6160    2.7110 N.am   36  GLN36      -0.1966
     31  CA        77.3990   84.3090    1.5860 C.3    36  GLN36       0.1718
     32  C         78.5850   83.6650    2.2770 C.2    36  GLN36       0.2458
     33  O         79.6200   84.3130    2.4770 O.2    36  GLN36      -0.2730
     34  CB        77.8310   85.6190    0.9250 C.3    36  GLN36       0.0407
     35  CG        76.6660   86.4340    0.4250 C.3    36  GLN36       0.0908
     36  CD        77.0530   87.8730    0.1980 C.2    36  GLN36       0.2608
     37  OE1       77.8980   88.1730   -0.6560 O.2    36  GLN36      -0.2717
     38  NE2       76.4620   88.7780    0.9820 N.am   36  GLN36      -0.0878
     39  N         78.4790   82.3520    2.5770 N.am   37  PRO37      -0.2727
     40  CA        79.5300   81.6040    3.2800 C.3    37  PRO37       0.1402
     41  C         80.9690   81.7970    2.8140 C.2    37  PRO37       0.2269
     42  O         81.8370   82.1170    3.6200 O.2    37  PRO37      -0.2865
     43  CB        79.0690   80.1490    3.1700 C.3    37  PRO37       0.0296
     44  CG        77.5740   80.2500    2.9670 C.3    37  PRO37       0.0237
     45  CD        77.4680   81.4340    2.0260 C.3    37  PRO37       0.0939
     46  N         82.0840   85.4270    3.3340 N.3    40  ALA40      -0.1231
     47  CA        82.2380   85.6720    4.7620 C.3    40  ALA40       0.1694
     48  C         83.5190   84.9880    5.2360 C.2    40  ALA40       0.2591
     49  O         84.2050   85.4910    6.1220 O.2    40  ALA40      -0.2718
     50  CB        81.0150   85.1310    5.5340 C.3    40  ALA40       0.0304
     51  N         83.8400   83.8220    4.6700 N.am   41  LEU41      -0.1980
     52  CA        85.0580   83.1330    5.1010 C.3    41  LEU41       0.1596
     53  C         86.3270   83.9940    4.8160 C.2    41  LEU41       0.2287
     54  O         87.3160   83.9460    5.5770 O.2    41  LEU41      -0.2864
     55  CB        85.1460   81.7520    4.4600 C.3    41  LEU41       0.0297
     56  CG        86.3240   80.8750    4.8850 C.3    41  LEU41       0.0022
     57  CD1       86.1850   80.4760    6.3540 C.3    41  LEU41       0.0001
     58  CD2       86.4130   79.6420    3.9810 C.3    41  LEU41       0.0001
     59  N         86.5520   86.3670    7.7240 N.3    44  ILE44      -0.1245
     60  CA        87.0240   85.6630    8.9280 C.3    44  ILE44       0.1561
     61  C         88.5490   85.4800    8.7880 C.2    44  ILE44       0.2260
     62  O         89.3100   85.6580    9.7530 O.2    44  ILE44      -0.2867
     63  CB        86.3400   84.2560    9.0890 C.3    44  ILE44       0.0252
     64  CG1       84.8160   84.4010    9.2460 C.3    44  ILE44       0.0019
     65  CG2       86.9570   83.4750   10.2500 C.3    44  ILE44       0.0019
     66  CD1       84.3820   85.4760   10.2290 C.3    44  ILE44       0.0001
     67  N         80.2950   91.9780    2.6950 N.3   114  ILE114     -0.1245
     68  CA        79.1740   91.0960    3.0200 C.3   114  ILE114      0.1561
     69  C         78.0430   91.7670    3.8010 C.2   114  ILE114      0.2260
     70  O         77.0090   91.1390    4.0370 O.2   114  ILE114     -0.2867
     71  CB        79.6300   89.8380    3.8190 C.3   114  ILE114      0.0252
     72  CG1       80.2940   90.2600    5.1410 C.3   114  ILE114      0.0019
     73  CG2       80.5670   88.9870    2.9620 C.3   114  ILE114      0.0019
     74  CD1       80.4250   89.1650    6.1650 C.3   114  ILE114      0.0001
     75  N         84.4620   61.9290    7.3060 N.3   180  PHE180     -0.1241
     76  CA        83.3450   62.5940    8.0030 C.3   180  PHE180      0.1605
     77  C         83.4130   64.1040    7.7240 C.2   180  PHE180      0.2264
     78  O         82.4030   64.7160    7.3810 O.2   180  PHE180     -0.2867
     79  CB        83.4580   62.3000    9.5170 C.3   180  PHE180      0.0534
     80  CG        82.6440   63.2080   10.4040 C.ar  180  PHE180     -0.0203
     81  CD1       81.2450   63.1430   10.4200 C.ar  180  PHE180     -0.0042
     82  CD2       83.2850   64.0640   11.3020 C.ar  180  PHE180     -0.0042
     83  CE1       80.4910   63.9280   11.3410 C.ar  180  PHE180     -0.0003
     84  CE2       82.5600   64.8370   12.2100 C.ar  180  PHE180     -0.0003
     85  CZ        81.1550   64.7680   12.2320 C.ar  180  PHE180     -0.0000
     86  N         80.2700   66.8630    5.7880 N.3   184  ILE184     -0.1245
     87  CA        79.5500   67.9650    6.4250 C.3   184  ILE184      0.1561
     88  C         79.2630   69.0790    5.4010 C.2   184  ILE184      0.2260
     89  O         80.1240   69.4050    4.5830 O.2   184  ILE184     -0.2867
     90  CB        80.4000   68.5290    7.5960 C.3   184  ILE184      0.0252
     91  CG1       80.5020   67.4550    8.7000 C.3   184  ILE184      0.0019
     92  CG2       79.8060   69.8640    8.1050 C.3   184  ILE184      0.0019
     93  CD1       81.6000   67.7250    9.7370 C.3   184  ILE184      0.0001
     94  N         79.4390   72.4380    4.7780 N.3   186  TRP186     -0.1241
     95  CA        80.0430   73.6480    5.3240 C.3   186  TRP186      0.1605
     96  C         79.4010   74.9510    4.8940 C.2   186  TRP186      0.2264
     97  O         79.6260   75.9820    5.5350 O.2   186  TRP186     -0.2867
     98  CB        81.5400   73.6820    5.0060 C.3   186  TRP186      0.0550
     99  CG        82.2330   72.5610    5.6560 C.ar  186  TRP186      0.0003
    100  CD1       82.5960   71.3730    5.0800 C.ar  186  TRP186      0.0946
    101  CD2       82.5630   72.4600    7.0480 C.ar  186  TRP186      0.0152
    102  NE1       83.1260   70.5340    6.0350 N.ar  186  TRP186     -0.2442
    103  CE2       83.1190   71.1720    7.2510 C.ar  186  TRP186      0.0810
    104  CE3       82.4380   73.3350    8.1470 C.ar  186  TRP186      0.0012
    105  CZ2       83.5580   70.7240    8.5150 C.ar  186  TRP186      0.0191
    106  CZ3       82.8740   72.8970    9.4010 C.ar  186  TRP186      0.0001
    107  CH2       83.4260   71.5970    9.5730 C.ar  186  TRP186      0.0015
    108  N         76.0380   75.4630    4.6980 N.3   188  SER188     -0.1202
    109  CA        74.6560   75.5130    5.1660 C.3   188  SER188      0.2020
    110  C         74.3880   76.6870    6.1170 C.2   188  SER188      0.2618
    111  O         75.3010   77.1830    6.7860 O.2   188  SER188     -0.2717
    112  CB        74.3360   74.1810    5.8610 C.3   188  SER188      0.2103
    113  OG        73.0130   74.1620    6.3440 O.3   188  SER188     -0.2182
    114  N         73.1330   77.1110    6.2070 N.am  189  ASP189     -0.1973
    115  CA        72.7760   78.1930    7.1200 C.3   189  ASP189      0.1709
    116  C         72.3070   77.6120    8.4860 C.2   189  ASP189      0.2293
    117  O         71.9830   78.3630    9.4130 O.2   189  ASP189     -0.2864
    118  CB        71.6460   79.0370    6.5190 C.3   189  ASP189      0.1436
    119  CG        70.3500   78.2540    6.3390 C.2   189  ASP189      0.3671
    120  OD1       70.3740   77.0160    6.2230 O.co2 189  ASP189     -0.2456
    121  OD2       69.2840   78.8940    6.3200 O.co2 189  ASP189     -0.2456
    122  N         73.8540   76.4510   10.9170 N.3   191  TYR191     -0.1227
    123  CA        74.6990   76.8150   12.0540 C.3   191  TYR191      0.1736
    124  C         74.2720   78.0930   12.7280 C.2   191  TYR191      0.2595
    125  O         74.7090   78.3630   13.8480 O.2   191  TYR191     -0.2718
    126  CB        76.1790   76.8600   11.6430 C.3   191  TYR191      0.0548
    127  CG        76.5600   75.6220   10.8680 C.ar  191  TYR191     -0.0200
    128  CD1       76.4930   74.3580   11.4700 C.ar  191  TYR191     -0.0009
    129  CD2       76.8620   75.6900    9.5050 C.ar  191  TYR191     -0.0009
    130  CE1       76.7060   73.1920   10.7300 C.ar  191  TYR191      0.0417
    131  CE2       77.0760   74.5270    8.7480 C.ar  191  TYR191      0.0417
    132  CZ        76.9960   73.2820    9.3660 C.ar  191  TYR191      0.1957
    133  OH        77.2170   72.1300    8.6350 O.3   191  TYR191     -0.2866
    134  N         73.4240   78.8760   12.0520 N.am  192  MET192     -0.1979
    135  CA        72.9210   80.1080   12.6330 C.3   192  MET192      0.1605
    136  C         71.4770   79.9920   13.1450 C.2   192  MET192      0.2287
    137  O         70.8340   81.0070   13.4210 O.2   192  MET192     -0.2864
    138  CB        73.0890   81.2810   11.6540 C.3   192  MET192      0.0413
    139  CG        74.5540   81.7250   11.5060 C.3   192  MET192      0.0598
    140  SD        74.7100   82.8570   10.1310 S.3   192  MET192     -0.1393
    141  CE        75.9340   84.0500   10.7900 C.3   192  MET192      0.0692
    142  N         72.8420   67.3480   18.0780 N.3   282  PRO282     -0.2102
    143  CA        73.8650   66.3860   17.6250 C.3   282  PRO282      0.1504
    144  C         73.2030   65.3530   16.6940 C.2   282  PRO282      0.2575
    145  O         73.8000   64.9400   15.7120 O.2   282  PRO282     -0.2718
    146  CB        74.3100   65.7230   18.9390 C.3   282  PRO282      0.0282
    147  CG        74.2050   66.8220   19.8990 C.3   282  PRO282      0.0208
    148  CD        72.8710   67.4640   19.5500 C.3   282  PRO282      0.0893
    149  N         71.9680   64.9460   17.0020 N.am  283  LEU283     -0.1980
    150  CA        71.2420   63.9970   16.1580 C.3   283  LEU283      0.1596
    151  C         70.9800   64.5690   14.7670 C.2   283  LEU283      0.2287
    152  O         71.0770   63.8300   13.7580 O.2   283  LEU283     -0.2864
    153  CB        69.9020   63.5760   16.7710 C.3   283  LEU283      0.0297
    154  CG        69.7070   62.1000   17.1760 C.3   283  LEU283      0.0022
    155  CD1       69.9950   61.1230   15.9790 C.3   283  LEU283      0.0001
    156  CD2       70.6590   61.7940   18.3300 C.3   283  LEU283      0.0001
    157  N         72.6970   66.8080   13.2070 N.3   285  MET285     -0.1230
    158  CA        73.9800   66.8490   12.4810 C.3   285  MET285      0.1702
    159  C         74.3840   65.4560   12.0070 C.2   285  MET285      0.2592
    160  O         74.8120   65.2790   10.8720 O.2   285  MET285     -0.2718
    161  CB        75.1030   67.4180   13.3580 C.3   285  MET285      0.0401
    162  CG        75.0160   68.9240   13.6230 C.3   285  MET285      0.0596
    163  SD        75.0130   69.8630   12.0940 S.3   285  MET285     -0.1393
    164  CE        73.2970   70.1770   11.7910 C.3   285  MET285      0.0692
    165  N         74.2260   64.4650   12.8800 N.am  286  PHE286     -0.1976
    166  CA        74.5580   63.0770   12.5750 C.3   286  PHE286      0.1639
    167  C         73.7250   62.5380   11.3960 C.2   286  PHE286      0.2290
    168  O         74.2350   61.7860   10.5650 O.2   286  PHE286     -0.2864
    169  CB        74.2760   62.2130   13.8260 C.3   286  PHE286      0.0560
    170  CG        74.4970   60.7320   13.6370 C.ar  286  PHE286     -0.0200
    171  CD1       75.7680   60.1650   13.8220 C.ar  286  PHE286     -0.0042
    172  CD2       73.4340   59.8920   13.3410 C.ar  286  PHE286     -0.0042
    173  CE1       75.9640   58.7780   13.7280 C.ar  286  PHE286     -0.0003
    174  CE2       73.6140   58.4990   13.2420 C.ar  286  PHE286     -0.0003
    175  CZ        74.8740   57.9330   13.4380 C.ar  286  PHE286     -0.0000
    176  N         75.0880   63.0880    7.6560 N.3   289  VAL289     -0.1245
    177  CA        76.3410   62.5000    7.1710 C.3   289  VAL289      0.1561
    178  C         76.2590   60.9740    7.1620 C.2   289  VAL289      0.2260
    179  O         75.2210   60.3970    7.4540 O.2   289  VAL289     -0.2867
    180  CB        77.5750   62.9620    8.0320 C.3   289  VAL289      0.0252
    181  CG1       77.6980   64.4960    8.0140 C.3   289  VAL289      0.0019
    182  CG2       77.4710   62.4390    9.4800 C.3   289  VAL289      0.0019
    183  N         80.7880   58.9210   10.8390 N.3   294  ALA294     -0.1231
    184  CA        80.6350   59.7440   12.0440 C.3   294  ALA294      0.1694
    185  C         81.1320   58.9340   13.2620 C.2   294  ALA294      0.2592
    186  O         81.8540   59.4540   14.1210 O.2   294  ALA294     -0.2718
    187  CB        79.1660   60.1680   12.2220 C.3   294  ALA294      0.0304
    188  N         80.7220   57.6690   13.3650 N.am  295  ASN295     -0.1974
    189  CA        81.1650   56.8290   14.4970 C.3   295  ASN295      0.1688
    190  C         82.6810   56.5850   14.4660 C.2   295  ASN295      0.2292
    191  O         83.3280   56.4880   15.5180 O.2   295  ASN295     -0.2864
    192  CB        80.4060   55.4760   14.5350 C.3   295  ASN295      0.1181
    193  CG        79.0420   55.5820   15.2330 C.2   295  ASN295      0.2629
    194  OD1       78.9760   55.7580   16.4460 O.2   295  ASN295     -0.2716
    195  ND2       77.9560   55.5030   14.4560 N.am  295  ASN295     -0.0877
    196  N         84.2570   59.7610   15.7610 N.3   298  ALA298     -0.1245
    197  CA        84.0410   59.8520   17.1960 C.3   298  ALA298      0.1562
    198  C         84.9780   58.9270   17.9640 C.2   298  ALA298      0.2260
    199  O         85.5850   59.3390   18.9560 O.2   298  ALA298     -0.2867
    200  CB        82.5810   59.5480   17.5290 C.3   298  ALA298      0.0290
    201  N         87.8080   60.0410   20.7880 N.3   302  TYR302     -0.1241
    202  CA        87.9280   59.5780   22.1840 C.3   302  TYR302      0.1605
    203  C         89.3010   58.9310   22.4660 C.2   302  TYR302      0.2264
    204  O         89.7670   58.8810   23.6140 O.2   302  TYR302     -0.2867
    205  CB        86.7450   58.6680   22.5500 C.3   302  TYR302      0.0534
    206  CG        85.4370   59.4520   22.6320 C.ar  302  TYR302     -0.0201
    207  CD1       85.2840   60.5230   23.5360 C.ar  302  TYR302     -0.0009
    208  CD2       84.3690   59.1610   21.7680 C.ar  302  TYR302     -0.0009
    209  CE1       84.0930   61.2880   23.5720 C.ar  302  TYR302      0.0417
    210  CE2       83.1740   59.9270   21.8000 C.ar  302  TYR302      0.0417
    211  CZ        83.0480   60.9810   22.6960 C.ar  302  TYR302      0.1957
    212  OH        81.8790   61.7150   22.7050 O.3   302  TYR302     -0.2866
@<TRIPOS>BOND
     1    37    36    2
     2    36    35    1
     3    36    38   am
     4    35    34    1
     5    34    31    1
     6    31    32    1
     7    31    30    1
     8    25    24    2
     9    45    39    1
    10    45    44    1
    11    32    33    2
    12    32    39   am
    13    39    40    1
    14    24    30   am
    15    24    23    1
    16    67    68    1
    17    41    40    1
    18    41    42    2
    19    73    71    1
    20    44    43    1
    21    68    69    1
    22    68    71    1
    23    43    40    1
    24    46    47    1
    25    22    23    1
    26    69    70    2
    27    71    72    1
    28    23    26    1
    29    58    56    1
    30    55    56    1
    31    55    52    1
    32    89    88    2
    33    26    27    1
    34    51    52    1
    35    51    48   am
    36   108   109    1
    37    47    48    1
    38    47    50    1
    39    94    95    1
    40    53    52    1
    41    53    54    2
    42    56    57    1
    43    96    95    1
    44    96    97    2
    45    98    95    1
    46    98    99    1
    47    27    29    1
    48    27    28    1
    49   100    99   ar
    50   100   102   ar
    51    72    74    1
    52   109   112    1
    53   109   110    1
    54    48    49    2
    55    88    87    1
    56    99   101   ar
    57    86    87    1
    58   112   113    1
    59   102   103   ar
    60    18    17    2
    61   110   114   am
    62   110   111    2
    63   114   115    1
    64   120   119   ar
    65   121   119   ar
    66   119   118    1
    67    87    90    1
    68   118   115    1
    69    17    16    1
    70   101   103   ar
    71   101   104   ar
    72   115   116    1
    73   178   177    1
    74   178   179    2
    75   177   176    1
    76   177   180    1
    77   103   105   ar
    78    75    76    1
    79    78    77    2
    80    14    11    1
    81    90    92    1
    82    90    91    1
    83    77    76    1
    84    59    60    1
    85    76    79    1
    86   181   180    1
    87   180   182    1
    88    20    21    1
    89    20    19    1
    90   104   106   ar
    91    16    15    1
    92    16    19    1
    93    15    21    1
    94    15    12   am
    95   116   117    2
    96   105   107   ar
    97   133   132    1
    98    12    13    2
    99    12    11    1
   100    91    93    1
   101   131   132   ar
   102   131   129   ar
   103    61    60    1
   104    61    62    2
   105    11    10    1
   106    60    63    1
   107    63    64    1
   108    63    65    1
   109    64    66    1
   110   132   130   ar
   111   106   107   ar
   112   129   127   ar
   113    79    80    1
   114    10     3   am
   115   140   141    1
   116   140   139    1
   117    80    81   ar
   118    80    82   ar
   119    81    83   ar
   120   168   167    2
   121   130   128   ar
   122   183   184    1
   123   127   128   ar
   124   127   126    1
   125   160   159    2
   126     8     7    2
   127   122   123    1
   128     3     4    2
   129     3     2    1
   130    82    84   ar
   131    83    85   ar
   132     5     2    1
   133     5     6    1
   134   167   166    1
   135   139   138    1
   136   126   123    1
   137   138   135    1
   138     2     1    1
   139   164   163    1
   140     7     6    1
   141     7     9   am
   142   159   158    1
   143   159   165   am
   144   184   187    1
   145   184   185    1
   146   134   135    1
   147   134   124   am
   148   123   124    1
   149   163   162    1
   150    84    85   ar
   151   158   157    1
   152   158   161    1
   153   166   165    1
   154   166   169    1
   155   135   136    1
   156   124   125    2
   157   136   137    2
   158   174   172   ar
   159   174   175   ar
   160   185   188   am
   161   185   186    2
   162   172   170   ar
   163   161   162    1
   164   188   189    1
   165   175   173   ar
   166   170   171   ar
   167   170   169    1
   168   173   171   ar
   169   152   151    2
   170   195   193   am
   171   190   189    1
   172   190   191    2
   173   189   192    1
   174   192   193    1
   175   151   150    1
   176   193   194    2
   177   145   144    2
   178   196   197    1
   179   155   154    1
   180   150   153    1
   181   150   149    1
   182   144   149   am
   183   144   143    1
   184   153   154    1
   185   154   156    1
   186   197   200    1
   187   197   198    1
   188   143   142    1
   189   143   146    1
   190   198   199    2
   191   142   148    1
   192   146   147    1
   193   148   147    1
   194   201   202    1
   195   208   210   ar
   196   208   206   ar
   197   210   211   ar
   198   202   203    1
   199   202   205    1
   200   203   204    2
   201   205   206    1
   202   206   207   ar
   203   211   212    1
   204   211   209   ar
   205   207   209   ar
