@<TRIPOS>MOLECULE
tmp/1ppvA00.pdb
 149 140 0 0 0
SMALL
GASTEIGER

@<TRIPOS>ATOM
      1  N          5.1880   -3.1720    4.1460 N.3     1  GLU1       -0.1245
      2  CA         4.7440   -2.2210    5.1590 C.3     1  GLU1        0.1567
      3  C          4.3510   -0.9050    4.4950 C.2     1  GLU1        0.2260
      4  O          4.8850   -0.5020    3.4610 O.2     1  GLU1       -0.2867
      5  CB         5.7880   -1.9570    6.2590 C.3     1  GLU1        0.0388
      6  CG         5.2120   -1.3120    7.5130 C.3     1  GLU1        0.1160
      7  CD         6.1170   -1.2500    8.7270 C.2     1  GLU1        0.3649
      8  OE1        7.2750   -1.7200    8.5960 O.co2   1  GLU1       -0.2457
      9  OE2        5.6980   -0.7420    9.8110 O.co2   1  GLU1       -0.2457
     10  N          6.1350    2.1590    2.7710 N.3    18  LYS18      -0.1245
     11  CA         6.8390    2.9010    3.8220 C.3    18  LYS18       0.1561
     12  C          8.1100    3.5810    3.3220 C.2    18  LYS18       0.2260
     13  O          8.3940    4.7490    3.5990 O.2    18  LYS18      -0.2867
     14  CB         7.1380    1.9690    5.0130 C.3    18  LYS18       0.0271
     15  CG         7.7770    2.7030    6.1900 C.3    18  LYS18       0.0035
     16  CD         7.9020    1.7990    7.4110 C.3    18  LYS18       0.0206
     17  CE         9.2180    1.0280    7.3270 C.3    18  LYS18       0.1093
     18  NZ         9.3710    0.1440    8.5260 N.3    18  LYS18      -0.1314
     19  N          2.1460    7.8320   13.0590 N.3    31  ALA31      -0.1231
     20  CA         3.3180    7.1880   13.6380 C.3    31  ALA31       0.1694
     21  C          3.1690    7.0050   15.1260 C.2    31  ALA31       0.2592
     22  O          2.2190    7.5060   15.7190 O.2    31  ALA31      -0.2718
     23  CB         4.5290    8.0720   13.3760 C.3    31  ALA31       0.0304
     24  N          4.1280    6.3380   15.7840 N.am   32  PHE32      -0.1976
     25  CA         4.1240    6.3580   17.2270 C.3    32  PHE32       0.1639
     26  C          5.5700    6.5860   17.6990 C.2    32  PHE32       0.2290
     27  O          6.4910    6.2720   16.9550 O.2    32  PHE32      -0.2864
     28  CB         3.6030    5.0800   17.9070 C.3    32  PHE32       0.0560
     29  CG         4.4880    3.8610   17.6710 C.ar   32  PHE32      -0.0200
     30  CD1        5.4920    3.4460   18.5410 C.ar   32  PHE32      -0.0042
     31  CD2        4.2910    3.1360   16.5050 C.ar   32  PHE32      -0.0042
     32  CE1        6.3080    2.3660   18.2620 C.ar   32  PHE32      -0.0003
     33  CE2        5.0890    2.0320   16.2390 C.ar   32  PHE32      -0.0003
     34  CZ         6.0900    1.6390   17.1100 C.ar   32  PHE32      -0.0000
     35  N         19.9730    5.1080   15.9000 N.3    48  ARG48      -0.1245
     36  CA        19.4250    4.5610   14.6730 C.3    48  ARG48       0.1563
     37  C         20.5170    4.0420   13.7390 C.2    48  ARG48       0.2260
     38  O         21.5520    4.7020   13.5770 O.2    48  ARG48      -0.2867
     39  CB        18.5960    5.6560   13.9830 C.3    48  ARG48       0.0307
     40  CG        17.3300    6.0000   14.7680 C.3    48  ARG48       0.0489
     41  CD        16.6930    7.2480   14.1650 C.3    48  ARG48       0.2205
     42  NE        16.1180    7.0400   12.8400 N.pl3  48  ARG48      -0.0865
     43  CZ        14.9550    6.4210   12.6200 C.cat  48  ARG48       0.5346
     44  NH1       14.2650    5.9360   13.6440 N.pl3  48  ARG48       0.1354
     45  NH2       14.5370    6.3060   11.3640 N.pl3  48  ARG48       0.1354
     46  N         18.9970    3.5680    8.0690 N.3    52  LYS52      -0.1245
     47  CA        17.6630    4.1760    8.1460 C.3    52  LYS52       0.1561
     48  C         17.5280    5.3240    7.1590 C.2    52  LYS52       0.2260
     49  O         18.4390    6.1470    6.9900 O.2    52  LYS52      -0.2867
     50  CB        17.3450    4.6650    9.5610 C.3    52  LYS52       0.0271
     51  CG        17.2410    3.5710   10.6170 C.3    52  LYS52       0.0035
     52  CD        16.2020    2.5220   10.2560 C.3    52  LYS52       0.0206
     53  CE        14.7710    3.0140   10.2720 C.3    52  LYS52       0.1093
     54  NZ        13.8240    1.8680   10.0350 N.3    52  LYS52      -0.1314
     55  N         15.6500    7.9060    7.3670 N.3    54  ALA54      -0.1245
     56  CA        15.5000    9.2130    7.9950 C.3    54  ALA54       0.1562
     57  C         16.2710    9.1880    9.3110 C.2    54  ALA54       0.2260
     58  O         16.1610    8.2090   10.0460 O.2    54  ALA54      -0.2867
     59  CB        14.0330    9.5430    8.2270 C.3    54  ALA54       0.0290
     60  N         10.4140    3.7730   17.6840 N.3    64  CYS64      -0.1221
     61  CA         9.5210    4.5810   16.8850 C.3    64  CYS64       0.1808
     62  C          8.9970    3.7380   15.7280 C.2    64  CYS64       0.2602
     63  O          9.6790    2.8280   15.2700 O.2    64  CYS64      -0.2717
     64  CB        10.1790    5.8110   16.2380 C.3    64  CYS64       0.0970
     65  SG        10.2480    7.2600   17.3060 S.3    64  CYS64      -0.0800
     66  N          7.7890    4.0600   15.2300 N.am   65  GLY65      -0.1942
     67  CA         7.3090    3.2500   14.1270 C.3    65  GLY65       0.2014
     68  C          6.0030    3.8150   13.5530 C.2    65  GLY65       0.2638
     69  O          5.5800    4.9170   13.8890 O.2    65  GLY65      -0.2714
     70  N          5.4280    3.0200   12.6790 N.am   66  HIS66      -0.1973
     71  CA         4.3070    3.3970   11.8280 C.3    66  HIS66       0.1656
     72  C          3.1900    2.3540   11.9410 C.2    66  HIS66       0.2291
     73  O          3.3170    1.2510   11.4130 O.2    66  HIS66      -0.2864
     74  CB         4.7830    3.4890   10.3880 C.3    66  HIS66       0.0771
     75  CG         5.7490    4.6030   10.1120 C.ar   66  HIS66       0.0820
     76  ND1        7.1270    4.4050   10.0640 N.ar   66  HIS66      -0.2267
     77  CD2        5.5450    5.9150    9.8850 C.ar   66  HIS66       0.1154
     78  CE1        7.7170    5.5700    9.8060 C.ar   66  HIS66       0.1986
     79  NE2        6.7720    6.5090    9.6940 N.ar   66  HIS66      -0.2212
     80  N          6.9500   -3.2980   16.9760 N.3    80  ARG80      -0.1245
     81  CA         8.3060   -2.8010   16.6700 C.3    80  ARG80       0.1563
     82  C          9.2630   -3.0530   17.8260 C.2    80  ARG80       0.2260
     83  O         10.4760   -3.1520   17.5680 O.2    80  ARG80      -0.2867
     84  CB         8.2450   -1.3130   16.3190 C.3    80  ARG80       0.0307
     85  CG         7.5700   -0.9990   14.9950 C.3    80  ARG80       0.0489
     86  CD         8.0970   -1.7870   13.8340 C.3    80  ARG80       0.2205
     87  NE         9.4020   -1.2680   13.3910 N.pl3  80  ARG80      -0.0865
     88  CZ         9.9200   -1.6290   12.2270 C.cat  80  ARG80       0.5346
     89  NH1        9.2690   -2.4850   11.4440 N.pl3  80  ARG80       0.1354
     90  NH2       11.0970   -1.1430   11.8180 N.pl3  80  ARG80       0.1354
     91  N         12.5690   -4.5550   16.2660 N.3    84  GLU84      -0.1245
     92  CA        13.8170   -3.7870   16.3040 C.3    84  GLU84       0.1567
     93  C         14.7320   -4.2320   17.4520 C.2    84  GLU84       0.2260
     94  O         15.9660   -4.2110   17.3130 O.2    84  GLU84      -0.2867
     95  CB        13.5130   -2.2800   16.4690 C.3    84  GLU84       0.0388
     96  CG        12.5990   -1.7240   15.3740 C.3    84  GLU84       0.1160
     97  CD        12.3750   -0.2260   15.5010 C.2    84  GLU84       0.3649
     98  OE1       13.0120    0.4160   16.3610 O.co2  84  GLU84      -0.2457
     99  OE2       11.5490    0.3280   14.7340 O.co2  84  GLU84      -0.2457
    100  N          4.4710   16.5320   14.6920 N.3   101  TYR101     -0.1241
    101  CA         5.6040   17.4050   14.3770 C.3   101  TYR101      0.1605
    102  C          6.0320   17.2430   12.9320 C.2   101  TYR101      0.2264
    103  O          5.7040   16.2550   12.2870 O.2   101  TYR101     -0.2867
    104  CB         6.7910   17.0750   15.3030 C.3   101  TYR101      0.0534
    105  CG         7.5200   15.8500   14.7880 C.ar  101  TYR101     -0.0201
    106  CD1        8.7700   15.9240   14.1940 C.ar  101  TYR101     -0.0009
    107  CD2        6.9020   14.6070   14.9090 C.ar  101  TYR101     -0.0009
    108  CE1        9.4330   14.8030   13.7180 C.ar  101  TYR101      0.0417
    109  CE2        7.5610   13.4850   14.4350 C.ar  101  TYR101      0.0417
    110  CZ         8.7990   13.5850   13.8500 C.ar  101  TYR101      0.1957
    111  OH         9.4380   12.4520   13.3930 O.3   101  TYR101     -0.2866
    112  N         10.2950   14.0900    8.1630 N.3   111  GLU111     -0.1245
    113  CA         9.2400   13.3120    8.8300 C.3   111  GLU111      0.1567
    114  C          8.1300   14.3150    9.1660 C.2   111  GLU111      0.2260
    115  O          8.4170   15.4310    9.5860 O.2   111  GLU111     -0.2867
    116  CB         9.6570   12.5720   10.0890 C.3   111  GLU111      0.0388
    117  CG        10.1970   11.1630    9.8840 C.3   111  GLU111      0.1160
    118  CD         9.1020   10.1580    9.5910 C.2   111  GLU111      0.3649
    119  OE1        9.3080    8.9350    9.7910 O.co2 111  GLU111     -0.2457
    120  OE2        8.0080   10.6060    9.1260 O.co2 111  GLU111     -0.2457
    121  N          4.4230   13.9050   10.9370 N.3   113  GLU113     -0.1245
    122  CA         3.6660   12.8620   11.5960 C.3   113  GLU113      0.1567
    123  C          2.7750   13.3790   12.7140 C.2   113  GLU113      0.2260
    124  O          3.0740   14.2640   13.4900 O.2   113  GLU113     -0.2867
    125  CB         4.6070   11.7970   12.2240 C.3   113  GLU113      0.0388
    126  CG         5.3720   11.0100   11.1580 C.3   113  GLU113      0.1160
    127  CD         6.4650   10.0970   11.6760 C.2   113  GLU113      0.3649
    128  OE1        6.8520   10.3390   12.8440 O.co2 113  GLU113     -0.2457
    129  OE2        6.8580    9.1590   10.9280 O.co2 113  GLU113     -0.2457
    130  N          1.8930   11.7060   15.9950 N.3   115  CYS115     -0.1235
    131  CA         2.7650   10.7160   16.6340 C.3   115  CYS115      0.1677
    132  C          2.5500   10.6100   18.1210 C.2   115  CYS115      0.2270
    133  O          3.3270   11.1230   18.9270 O.2   115  CYS115     -0.2867
    134  CB         4.2190   11.1290   16.3220 C.3   115  CYS115      0.0956
    135  SG         5.4300    9.9340   16.9710 S.3   115  CYS115     -0.0801
    136  N         12.5550   14.8580   17.4070 N.3   158  TRP158     -0.1241
    137  CA        11.3150   14.4440   18.0860 C.3   158  TRP158      0.1605
    138  C         11.5670   13.9870   19.5140 C.2   158  TRP158      0.2264
    139  O         10.7340   14.1310   20.4050 O.2   158  TRP158     -0.2867
    140  CB        10.6130   13.3570   17.2890 C.3   158  TRP158      0.0550
    141  CG        11.3340   12.0550   17.2060 C.ar  158  TRP158      0.0003
    142  CD1       11.3250   11.0100   18.0750 C.ar  158  TRP158      0.0946
    143  CD2       12.1980   11.6790   16.1190 C.ar  158  TRP158      0.0152
    144  NE1       12.1370   10.0010   17.6030 N.ar  158  TRP158     -0.2442
    145  CE2       12.6810   10.3880   16.4060 C.ar  158  TRP158      0.0810
    146  CE3       12.5880   12.3390   14.9420 C.ar  158  TRP158      0.0012
    147  CZ2       13.5550    9.7140   15.5550 C.ar  158  TRP158      0.0191
    148  CZ3       13.4590   11.6610   14.1010 C.ar  158  TRP158      0.0001
    149  CH2       13.9230   10.3770   14.4130 C.ar  158  TRP158      0.0015
@<TRIPOS>BOND
     1    10    11    1
     2    12    13    2
     3    12    11    1
     4     4     3    2
     5    11    14    1
     6     1     2    1
     7     3     2    1
     8    14    15    1
     9     2     5    1
    10    15    16    1
    11     5     6    1
    12    49    48    2
    13    48    47    1
    14    17    16    1
    15    17    18    1
    16    55    56    1
    17     6     7    1
    18    56    59    1
    19    56    57    1
    20    46    47    1
    21    47    50    1
    22   112   113    1
    23     8     7   ar
    24     7     9   ar
    25   113   114    1
    26   113   116    1
    27   120   118   ar
    28   114   115    2
    29    57    58    2
    30    50    51    1
    31   118   119   ar
    32   118   117    1
    33    79    78   ar
    34    79    77   ar
    35    78    76   ar
    36   117   116    1
    37    77    75   ar
    38    54    53    1
    39    76    75   ar
    40    75    74    1
    41    52    53    1
    42    52    51    1
    43    74    71    1
    44   129   127   ar
    45   121   122    1
    46   126   127    1
    47   126   125    1
    48    45    43    1
    49    73    72    2
    50    89    88    1
    51   122   125    1
    52   122   123    1
    53   127   128   ar
    54    90    88    1
    55    71    72    1
    56    71    70    1
    57    88    87    2
    58   103   102    2
    59    43    42    2
    60    43    44    1
    61    70    68   am
    62   123   124    2
    63    42    41    1
    64   102   101    1
    65    19    20    1
    66    23    20    1
    67    87    86    1
    68   111   110    1
    69    68    69    2
    70    68    67    1
    71    38    37    2
    72    20    21    1
    73   108   110   ar
    74   108   106   ar
    75    37    36    1
    76    86    85    1
    77   110   109   ar
    78    39    36    1
    79    39    40    1
    80   148   149   ar
    81   148   146   ar
    82    67    66    1
    83    41    40    1
    84   106   105   ar
    85   101   100    1
    86   101   104    1
    87   149   147   ar
    88   109   107   ar
    89    36    35    1
    90    99    97   ar
    91   105   107   ar
    92   105   104    1
    93   146   143   ar
    94    85    84    1
    95    21    22    2
    96    21    24   am
    97    66    62   am
    98    63    62    2
    99    96    97    1
   100    96    95    1
   101    97    98   ar
   102   147   145   ar
   103    62    61    1
   104    24    25    1
   105   130   131    1
   106   143   145   ar
   107   143   141   ar
   108    64    61    1
   109    64    65    1
   110    33    31   ar
   111    33    34   ar
   112    91    92    1
   113    92    95    1
   114    92    93    1
   115    84    81    1
   116   134   131    1
   117   134   135    1
   118   145   144   ar
   119    31    29   ar
   120   131   132    1
   121    81    80    1
   122    81    82    1
   123    61    60    1
   124    27    26    2
   125    34    32   ar
   126   141   140    1
   127   141   142   ar
   128    25    26    1
   129    25    28    1
   130   140   137    1
   131    94    93    2
   132   136   137    1
   133    83    82    2
   134   144   142   ar
   135    29    28    1
   136    29    30   ar
   137   137   138    1
   138   132   133    2
   139    32    30   ar
   140   138   139    2
