@<TRIPOS>MOLECULE
tmp/1ppxA00.pdb
 104 95 0 0 0
SMALL
GASTEIGER

@<TRIPOS>ATOM
      1  N         -6.1230  -14.2230   -2.2150 N.3     4  LEU4       -0.1231
      2  CA        -5.8030  -12.9550   -2.8580 C.3     4  LEU4        0.1693
      3  C         -4.7330  -12.2010   -2.0750 C.2     4  LEU4        0.2592
      4  O         -4.8820  -11.9530   -0.8800 O.2     4  LEU4       -0.2718
      5  CB        -7.0600  -12.0940   -2.9860 C.3     4  LEU4        0.0284
      6  CG        -7.6470  -11.6020   -1.6610 C.3     4  LEU4        0.0019
      7  CD1       -7.0800  -10.2370   -1.3000 C.3     4  LEU4        0.0001
      8  CD2       -9.1650  -11.5480   -1.7390 C.3     4  LEU4        0.0001
      9  N         -3.6510  -11.8440   -2.7570 N.am    5  GLN5       -0.1966
     10  CA        -2.5550  -11.1220   -2.1260 C.3     5  GLN5        0.1733
     11  C         -2.5850   -9.6460   -2.4770 C.2     5  GLN5        0.2616
     12  O         -3.0370   -9.2530   -3.5530 O.2     5  GLN5       -0.2715
     13  CB        -1.2120  -11.7080   -2.5490 C.3     5  GLN5        0.0408
     14  CG        -1.1680  -13.2180   -2.4540 C.3     5  GLN5        0.0908
     15  CD         0.2270  -13.7790   -2.6430 C.2     5  GLN5        0.2608
     16  OE1        1.1750  -13.0410   -2.9110 O.2     5  GLN5       -0.2717
     17  NE2        0.3590  -15.0940   -2.5050 N.am    5  GLN5       -0.0878
     18  N         -2.0860   -8.8380   -1.5560 N.am    6  ILE6       -0.1977
     19  CA        -2.0280   -7.4010   -1.7360 C.3     6  ILE6        0.1596
     20  C         -0.7240   -6.8550   -1.1650 C.2     6  ILE6        0.2287
     21  O         -0.3500   -7.1730   -0.0360 O.2     6  ILE6       -0.2864
     22  CB        -3.2180   -6.7000   -1.0480 C.3     6  ILE6        0.0276
     23  CG1       -4.5450   -7.1650   -1.6550 C.3     6  ILE6        0.0022
     24  CG2       -3.0800   -5.1900   -1.1610 C.3     6  ILE6        0.0022
     25  CD1       -5.4840   -7.7900   -0.6450 C.3     6  ILE6        0.0001
     26  N        -11.1500    6.5930   -0.9690 N.3    23  ARG23      -0.1245
     27  CA       -12.2890    6.2320   -1.8040 C.3    23  ARG23       0.1563
     28  C        -12.8700    7.4810   -2.4640 C.2    23  ARG23       0.2260
     29  O        -14.0290    7.8330   -2.2490 O.2    23  ARG23      -0.2867
     30  CB       -13.3600    5.5170   -0.9780 C.3    23  ARG23       0.0307
     31  CG       -13.0720    4.0390   -0.7590 C.3    23  ARG23       0.0489
     32  CD       -12.8390    3.3110   -2.0740 C.3    23  ARG23       0.2205
     33  NE       -12.8580    1.8600   -1.9070 N.pl3  23  ARG23      -0.0865
     34  CZ       -11.8300    1.1550   -1.4400 C.cat  23  ARG23       0.5346
     35  NH1      -10.7020    1.7620   -1.0900 N.pl3  23  ARG23       0.1354
     36  NH2      -11.9310   -0.1630   -1.3200 N.pl3  23  ARG23       0.1354
     37  N        -12.6570    3.8090    3.6990 N.3    32  LYS32      -0.1245
     38  CA       -11.7580    2.7860    3.1700 C.3    32  LYS32       0.1561
     39  C        -10.4580    3.3930    2.6650 C.2    32  LYS32       0.2260
     40  O         -9.7920    2.8340    1.7940 O.2    32  LYS32      -0.2867
     41  CB       -12.4370    1.9890    2.0570 C.3    32  LYS32       0.0271
     42  CG       -12.9910    0.6520    2.5220 C.3    32  LYS32       0.0035
     43  CD       -13.9580    0.0660    1.5070 C.3    32  LYS32       0.0206
     44  CE       -14.7700   -1.0730    2.1030 C.3    32  LYS32       0.1093
     45  NZ       -15.0600   -2.1330    1.0990 N.3    32  LYS32      -0.1314
     46  N         -7.3000    3.6630    1.8620 N.3    34  GLU34      -0.1245
     47  CA        -6.1760    2.7310    1.8610 C.3    34  GLU34       0.1567
     48  C         -4.9960    3.2720    1.0560 C.2    34  GLU34       0.2260
     49  O         -4.9460    4.4540    0.7180 O.2    34  GLU34      -0.2867
     50  CB        -6.6160    1.3760    1.3030 C.3    34  GLU34       0.0388
     51  CG        -6.1870    0.1980    2.1620 C.3    34  GLU34       0.1160
     52  CD        -6.7180   -1.1260    1.6440 C.2    34  GLU34       0.3649
     53  OE1       -7.0790   -1.1940    0.4510 O.co2  34  GLU34      -0.2457
     54  OE2       -6.7730   -2.0930    2.4320 O.co2  34  GLU34      -0.2457
     55  N         -2.2340   -2.8880   -5.2660 N.3    38  GLY38      -0.1210
     56  CA        -3.2520   -3.9180   -5.3480 C.3    38  GLY38       0.1956
     57  C         -3.1070   -4.7630   -6.6050 C.2    38  GLY38       0.2611
     58  O         -2.8360   -4.2250   -7.6770 O.2    38  GLY38      -0.2717
     59  N         -3.2890   -6.0840   -6.4680 N.am   39  LYS39      -0.1979
     60  CA        -3.1850   -7.0260   -7.5900 C.3    39  LYS39       0.1596
     61  C         -1.7780   -7.6020   -7.7260 C.2    39  LYS39       0.2287
     62  O         -1.4930   -8.3320   -8.6760 O.2    39  LYS39      -0.2864
     63  CB        -3.6060   -6.3840   -8.9160 C.3    39  LYS39       0.0298
     64  CG        -3.6750   -7.3760  -10.0630 C.3    39  LYS39       0.0038
     65  CD        -4.9950   -7.2780  -10.8130 C.3    39  LYS39       0.0206
     66  CE        -5.1120   -5.9630  -11.5670 C.3    39  LYS39       0.1093
     67  NZ        -5.9280   -4.9660  -10.8200 N.3    39  LYS39      -0.1314
     68  N         -0.6080   -9.9010   -6.3530 N.3    41  GLU41      -0.1245
     69  CA        -0.7850  -11.3440   -6.3210 C.3    41  GLU41       0.1567
     70  C         -0.4150  -11.9700   -7.6590 C.2    41  GLU41       0.2260
     71  O          0.7130  -12.4240   -7.8380 O.2    41  GLU41      -0.2867
     72  CB        -2.2290  -11.6960   -5.9440 C.3    41  GLU41       0.0388
     73  CG        -3.2740  -10.7120   -6.4640 C.3    41  GLU41       0.1160
     74  CD        -4.3490  -11.3800   -7.2990 C.2    41  GLU41       0.3649
     75  OE1       -4.0670  -12.4460   -7.8870 O.co2  41  GLU41      -0.2457
     76  OE2       -5.4720  -10.8380   -7.3640 O.co2  41  GLU41      -0.2457
     77  N        -11.5090  -16.7530    1.7130 N.3    78  ARG78      -0.1245
     78  CA       -10.7680  -15.7690    0.9310 C.3    78  ARG78       0.1563
     79  C         -9.5330  -15.2820    1.6860 C.2    78  ARG78       0.2260
     80  O         -9.6240  -14.3900    2.5290 O.2    78  ARG78      -0.2867
     81  CB       -11.6660  -14.5820    0.5800 C.3    78  ARG78       0.0307
     82  CG       -11.1530  -13.7580   -0.5900 C.3    78  ARG78       0.0489
     83  CD       -12.2950  -13.1950   -1.4220 C.3    78  ARG78       0.2205
     84  NE       -12.2390  -11.7380   -1.5130 N.pl3  78  ARG78      -0.0865
     85  CZ       -12.8730  -11.0280   -2.4430 C.cat  78  ARG78       0.5346
     86  NH1      -13.6110  -11.6360   -3.3630 N.pl3  78  ARG78       0.1354
     87  NH2      -12.7690   -9.7060   -2.4540 N.pl3  78  ARG78       0.1354
     88  N         -6.7550  -13.1030    2.3140 N.3    80  ILE80      -0.1245
     89  CA        -6.3150  -11.7750    1.9250 C.3    80  ILE80       0.1561
     90  C         -4.9770  -11.4280    2.5750 C.2    80  ILE80       0.2260
     91  O         -4.8750  -11.3310    3.7970 O.2    80  ILE80      -0.2867
     92  CB        -7.3650  -10.7130    2.3130 C.3    80  ILE80       0.0252
     93  CG1       -6.8150   -9.3110    2.0730 C.3    80  ILE80       0.0019
     94  CG2       -7.7790  -10.8810    3.7670 C.3    80  ILE80       0.0019
     95  CD1       -7.8440   -8.3380    1.5380 C.3    80  ILE80       0.0001
     96  N         -3.7890    2.6500   -9.7920 N.3    98  GLU98      -0.1245
     97  CA        -4.4310    1.8350   -8.7630 C.3    98  GLU98       0.1567
     98  C         -5.9510    1.8950   -8.8950 C.2    98  GLU98       0.2260
     99  O         -6.6390    0.8940   -8.6920 O.2    98  GLU98      -0.2867
    100  CB        -4.0000    2.2990   -7.3700 C.3    98  GLU98       0.0388
    101  CG        -4.0140    3.8070   -7.1960 C.3    98  GLU98       0.1160
    102  CD        -4.1870    4.2200   -5.7500 C.2    98  GLU98       0.3649
    103  OE1       -5.2350    3.8860   -5.1610 O.co2  98  GLU98      -0.2457
    104  OE2       -3.2720    4.8760   -5.2070 O.co2  98  GLU98      -0.2457
@<TRIPOS>BOND
     1    66    67    1
     2    66    65    1
     3    65    64    1
     4    64    63    1
     5    96    97    1
     6    63    60    1
     7    98    97    1
     8    98    99    2
     9    97   100    1
    10    62    61    2
    11    75    74   ar
    12    71    70    2
    13    61    60    1
    14    58    57    2
    15    70    69    1
    16    60    59    1
    17   100   101    1
    18    76    74   ar
    19    74    73    1
    20   101   102    1
    21    57    59   am
    22    57    56    1
    23    73    72    1
    24    68    69    1
    25    69    72    1
    26   102   104   ar
    27   102   103   ar
    28    56    55    1
    29    12    11    2
    30    86    85    1
    31     5     2    1
    32     5     6    1
    33    16    15    2
    34     2     1    1
    35     2     3    1
    36     9    10    1
    37     9     3   am
    38    15    17   am
    39    15    14    1
    40    13    14    1
    41    13    10    1
    42    11    10    1
    43    11    18   am
    44    28    29    2
    45    28    27    1
    46    87    85    1
    47    85    84    2
    48     3     4    2
    49    32    33    1
    50    32    31    1
    51    33    34    2
    52    27    30    1
    53    27    26    1
    54     8     6    1
    55    19    18    1
    56    19    20    1
    57    19    22    1
    58     6     7    1
    59    23    22    1
    60    23    25    1
    61    84    83    1
    62    34    36    1
    63    34    35    1
    64    83    82    1
    65    20    21    2
    66    24    22    1
    67    30    31    1
    68    82    81    1
    69    53    52   ar
    70    81    78    1
    71    49    48    2
    72    78    79    1
    73    78    77    1
    74    48    47    1
    75    45    44    1
    76    50    47    1
    77    50    51    1
    78    43    44    1
    79    43    42    1
    80    95    93    1
    81    52    51    1
    82    52    54   ar
    83    79    80    2
    84    40    39    2
    85    47    46    1
    86    89    92    1
    87    89    88    1
    88    89    90    1
    89    41    42    1
    90    41    38    1
    91    93    92    1
    92    92    94    1
    93    90    91    2
    94    39    38    1
    95    38    37    1
