@<TRIPOS>MOLECULE
tmp/1pq3C00.pdb
 134 123 0 0 0
SMALL
GASTEIGER

@<TRIPOS>ATOM
      1  N         99.3490   47.1850  -26.2730 N.3    97  HIS97      -0.1241
      2  CA       100.0680   48.4370  -26.1060 C.3    97  HIS97       0.1621
      3  C        101.0610   48.8370  -27.1990 C.2    97  HIS97       0.2264
      4  O        101.6950   49.8900  -27.0900 O.2    97  HIS97      -0.2867
      5  CB       100.7740   48.4240  -24.7480 C.3    97  HIS97       0.0745
      6  CG       100.7350   49.7420  -24.0340 C.ar   97  HIS97       0.0817
      7  ND1      100.9670   49.8620  -22.6820 N.ar   97  HIS97      -0.2268
      8  CD2      100.4910   50.9930  -24.4890 C.ar   97  HIS97       0.1154
      9  CE1      100.8640   51.1320  -22.3340 C.ar   97  HIS97       0.1986
     10  NE2      100.5780   51.8400  -23.4110 N.ar   97  HIS97      -0.2212
     11  N        104.2910   47.4180  -16.2800 N.3   122  HIS122     -0.1241
     12  CA       105.5800   47.2390  -16.9320 C.3   122  HIS122      0.1621
     13  C        106.0560   48.5340  -17.5890 C.2   122  HIS122      0.2264
     14  O        105.2650   49.4420  -17.8310 O.2   122  HIS122     -0.2867
     15  CB       105.4720   46.1500  -18.0010 C.3   122  HIS122      0.0745
     16  CG       104.5810   45.0090  -17.6240 C.ar  122  HIS122      0.0817
     17  ND1      103.2060   45.0820  -17.7000 N.ar  122  HIS122     -0.2268
     18  CD2      104.8660   43.7610  -17.1850 C.ar  122  HIS122      0.1154
     19  CE1      102.6820   43.9280  -17.3290 C.ar  122  HIS122      0.1986
     20  NE2      103.6690   43.1080  -17.0100 N.ar  122  HIS122     -0.2212
     21  N        107.5420   48.5860  -20.6200 N.3   124  ASP124     -0.1239
     22  CA       107.4170   48.4210  -22.0740 C.3   124  ASP124      0.1674
     23  C        108.5410   49.1590  -22.8010 C.2   124  ASP124      0.2266
     24  O        108.3050   49.7970  -23.8270 O.2   124  ASP124     -0.2867
     25  CB       106.0760   48.9760  -22.5750 C.3   124  ASP124      0.1410
     26  CG       104.8710   48.2480  -21.9950 C.2   124  ASP124      0.3668
     27  OD1      104.9640   47.0290  -21.7700 O.co2 124  ASP124     -0.2456
     28  OD2      103.8220   48.8970  -21.7840 O.co2 124  ASP124     -0.2456
     29  N        111.7050   47.6280  -23.5860 N.3   126  ASN126     -0.1240
     30  CA       112.6810   46.6670  -24.1000 C.3   126  ASN126      0.1653
     31  C        112.9540   47.0410  -25.5620 C.2   126  ASN126      0.2266
     32  O        112.0360   47.4490  -26.2770 O.2   126  ASN126     -0.2867
     33  CB       112.0940   45.2540  -24.0840 C.3   126  ASN126      0.1155
     34  CG       112.6190   44.4040  -22.9470 C.2   126  ASN126      0.2627
     35  OD1      113.8300   44.3060  -22.7420 O.2   126  ASN126     -0.2716
     36  ND2      111.7060   43.7590  -22.2120 N.am  126  ASN126     -0.0877
     37  N        114.7760   42.4660  -25.8020 N.3   131  THR131     -0.1203
     38  CA       113.5740   41.6630  -25.5090 C.3   131  THR131      0.1994
     39  C        113.8960   40.1790  -25.3970 C.2   131  THR131      0.2619
     40  O        114.9200   39.7110  -25.8810 O.2   131  THR131     -0.2717
     41  CB       112.4800   41.8120  -26.5840 C.3   131  THR131      0.1784
     42  OG1      111.2280   41.3330  -26.0760 O.3   131  THR131     -0.2211
     43  CG2      112.8190   40.9950  -27.7900 C.3   131  THR131      0.0376
     44  N        113.0040   39.4410  -24.7540 N.am  132  SER132     -0.1937
     45  CA       113.1900   38.0140  -24.5750 C.3   132  SER132      0.2055
     46  C        112.0780   37.2970  -25.2990 C.2   132  SER132      0.2643
     47  O        112.2890   36.2370  -25.8890 O.2   132  SER132     -0.2714
     48  CB       113.1390   37.6420  -23.0930 C.3   132  SER132      0.2130
     49  OG       114.1860   38.2720  -22.3790 O.3   132  SER132     -0.2179
     50  N        110.8890   37.8900  -25.2590 N.am  133  SER133     -0.1949
     51  CA       109.7150   37.3050  -25.8990 C.3   133  SER133      0.1924
     52  C        109.6220   37.6780  -27.3760 C.2   133  SER133      0.2314
     53  O        109.1240   36.9000  -28.1940 O.2   133  SER133     -0.2863
     54  CB       108.4550   37.7770  -25.1860 C.3   133  SER133      0.2116
     55  OG       108.3740   39.1920  -25.2390 O.3   133  SER133     -0.2180
     56  N        107.8000   39.9510  -28.4360 N.3   135  ASN135     -0.1240
     57  CA       106.5020   40.5980  -28.5860 C.3   135  ASN135      0.1653
     58  C        106.7440   42.0930  -28.5550 C.2   135  ASN135      0.2266
     59  O        107.4210   42.5920  -27.6570 O.2   135  ASN135     -0.2867
     60  CB       105.5680   40.2160  -27.4440 C.3   135  ASN135      0.1155
     61  CG       105.2750   38.7380  -27.4030 C.2   135  ASN135      0.2627
     62  OD1      104.8940   38.1440  -28.4050 O.2   135  ASN135     -0.2716
     63  ND2      105.4400   38.1360  -26.2360 N.am  135  ASN135     -0.0877
     64  N        104.6050   44.5680  -27.9330 N.3   137  HIS137     -0.1226
     65  CA       103.8770   45.4080  -26.9780 C.3   137  HIS137      0.1752
     66  C        104.7100   45.7140  -25.7330 C.2   137  HIS137      0.2596
     67  O        104.2910   46.4770  -24.8650 O.2   137  HIS137     -0.2718
     68  CB       102.5170   44.7980  -26.5780 C.3   137  HIS137      0.0759
     69  CG       102.6070   43.5560  -25.7440 C.ar  137  HIS137      0.0818
     70  ND1      101.4980   42.9850  -25.1540 N.ar  137  HIS137     -0.2268
     71  CD2      103.6550   42.7560  -25.4270 C.ar  137  HIS137      0.1154
     72  CE1      101.8590   41.8870  -24.5110 C.ar  137  HIS137      0.1986
     73  NE2      103.1620   41.7260  -24.6610 N.ar  137  HIS137     -0.2212
     74  N        105.9030   45.1310  -25.6610 N.am  138  GLY138     -0.1957
     75  CA       106.7840   45.3810  -24.5340 C.3   138  GLY138      0.1869
     76  C        107.9530   46.2720  -24.9280 C.2   138  GLY138      0.2309
     77  O        108.8880   46.4800  -24.1510 O.2   138  GLY138     -0.2863
     78  N        106.9820   45.1530  -12.4060 N.3   177  ASP177     -0.1239
     79  CA       107.5290   44.0050  -13.1460 C.3   177  ASP177      0.1674
     80  C        108.4550   44.4920  -14.2590 C.2   177  ASP177      0.2266
     81  O        108.0570   44.5730  -15.4190 O.2   177  ASP177     -0.2867
     82  CB       106.4170   43.1640  -13.7740 C.3   177  ASP177      0.1410
     83  CG       106.9540   41.9200  -14.4760 C.2   177  ASP177      0.3668
     84  OD1      107.4680   41.0200  -13.7810 O.co2 177  ASP177     -0.2456
     85  OD2      106.8700   41.8390  -15.7230 O.co2 177  ASP177     -0.2456
     86  N        112.1000   44.0720  -16.3940 N.3   179  ASP179     -0.1239
     87  CA       113.1870   43.1640  -16.7820 C.3   179  ASP179      0.1674
     88  C        114.5330   43.8550  -16.5350 C.2   179  ASP179      0.2266
     89  O        114.6380   45.0820  -16.6320 O.2   179  ASP179     -0.2867
     90  CB       113.1110   42.7960  -18.2690 C.3   179  ASP179      0.1410
     91  CG       111.8420   42.0460  -18.6320 C.2   179  ASP179      0.3668
     92  OD1      111.3700   41.2260  -17.8120 O.co2 179  ASP179     -0.2456
     93  OD2      111.3280   42.2660  -19.7530 O.co2 179  ASP179     -0.2456
     94  N        115.5090   46.5660  -18.9750 N.3   182  GLU182     -0.1245
     95  CA       114.6760   47.7560  -18.8490 C.3   182  GLU182      0.1567
     96  C        115.1750   48.6140  -17.6960 C.2   182  GLU182      0.2260
     97  O        115.3090   49.8340  -17.8250 O.2   182  GLU182     -0.2867
     98  CB       113.2150   47.3640  -18.6310 C.3   182  GLU182      0.0388
     99  CG       112.5700   46.7190  -19.8480 C.3   182  GLU182      0.1160
    100  CD       111.0980   46.4170  -19.6530 C.2   182  GLU182      0.3649
    101  OE1      110.7670   45.5350  -18.8320 O.co2 182  GLU182     -0.2457
    102  OE2      110.2690   47.0710  -20.3270 O.co2 182  GLU182     -0.2457
    103  N         97.6470   51.3420  -19.4470 N.3   228  ASP228     -0.1239
    104  CA        97.5720   49.8880  -19.6050 C.3   228  ASP228      0.1674
    105  C         96.6680   49.4080  -18.4760 C.2   228  ASP228      0.2266
    106  O         96.9190   49.7140  -17.3180 O.2   228  ASP228     -0.2867
    107  CB        98.9720   49.2790  -19.4450 C.3   228  ASP228      0.1410
    108  CG        99.0320   47.8110  -19.8480 C.2   228  ASP228      0.3668
    109  OD1       98.0700   47.0760  -19.5390 O.co2 228  ASP228     -0.2456
    110  OD2      100.0450   47.3930  -20.4580 O.co2 228  ASP228     -0.2456
    111  N         96.5030   46.6510  -17.0870 N.3   230  ASP230     -0.1239
    112  CA        97.1330   45.7500  -16.1190 C.3   230  ASP230      0.1674
    113  C         97.8510   46.4840  -14.9790 C.2   230  ASP230      0.2266
    114  O         98.4890   45.8610  -14.1260 O.2   230  ASP230     -0.2867
    115  CB        98.0870   44.7430  -16.8050 C.3   230  ASP230      0.1410
    116  CG        99.2820   45.4020  -17.5070 C.2   230  ASP230      0.3668
    117  OD1       99.7280   46.4870  -17.0770 O.co2 230  ASP230     -0.2456
    118  OD2       99.7960   44.8040  -18.4830 O.co2 230  ASP230     -0.2456
    119  N         98.8060   40.0700  -19.2610 N.3   242  THR242     -0.1218
    120  CA        99.9140   39.8680  -18.3490 C.3   242  THR242      0.1862
    121  C         99.6640   40.4070  -16.9400 C.2   242  THR242      0.2287
    122  O        100.1440   41.4820  -16.5720 O.2   242  THR242     -0.2866
    123  CB       101.1940   40.4980  -18.9160 C.3   242  THR242      0.1770
    124  OG1      100.9700   41.8960  -19.1300 O.3   242  THR242     -0.2211
    125  CG2      101.5690   39.8470  -20.2320 C.3   242  THR242      0.0375
    126  N         95.1990   46.8480  -23.6870 N.3   273  GLU273     -0.1245
    127  CA        95.3220   45.5020  -23.1320 C.3   273  GLU273      0.1567
    128  C         94.0960   44.8400  -22.5040 C.2   273  GLU273      0.2260
    129  O         94.2310   43.8840  -21.7460 O.2   273  GLU273     -0.2867
    130  CB        96.4880   45.4530  -22.1400 C.3   273  GLU273      0.0388
    131  CG        97.8670   45.7840  -22.7420 C.3   273  GLU273      0.1160
    132  CD        98.4400   44.7020  -23.6770 C.2   273  GLU273      0.3649
    133  OE1       97.8640   43.5980  -23.7790 O.co2 273  GLU273     -0.2457
    134  OE2       99.4870   44.9640  -24.3080 O.co2 273  GLU273     -0.2457
@<TRIPOS>BOND
     1    57    58    1
     2    57    56    1
     3    57    60    1
     4    58    59    2
     5    62    61    2
     6    53    52    2
     7    64    65    1
     8    43    41    1
     9    60    61    1
    10    61    63   am
    11    52    51    1
    12     3     4    2
    13     3     2    1
    14    65    68    1
    15    65    66    1
    16    41    42    1
    17    41    38    1
    18    68    69    1
    19    32    31    2
    20     1     2    1
    21     2     5    1
    22    51    50    1
    23    51    54    1
    24    47    46    2
    25    40    39    2
    26    37    38    1
    27    69    71   ar
    28    69    70   ar
    29    66    74   am
    30    66    67    2
    31    74    75    1
    32    31    30    1
    33    38    39    1
    34    71    73   ar
    35    39    44   am
    36    46    50   am
    37    46    45    1
    38    55    54    1
    39    70    72   ar
    40    76    75    1
    41    76    77    2
    42    44    45    1
    43     5     6    1
    44    73    72   ar
    45    45    48    1
    46     8     6   ar
    47     8    10   ar
    48   134   132   ar
    49    30    33    1
    50    30    29    1
    51    33    34    1
    52     6     7   ar
    53    24    23    2
    54   133   132   ar
    55   126   127    1
    56   132   131    1
    57    10     9   ar
    58   127   128    1
    59   127   130    1
    60    48    49    1
    61    34    35    2
    62    34    36   am
    63    23    22    1
    64   131   130    1
    65     7     9   ar
    66    25    22    1
    67    25    26    1
    68   128   129    2
    69    22    21    1
    70    26    28   ar
    71    26    27   ar
    72   110   108   ar
    73   102   100   ar
    74   125   123    1
    75   108   109   ar
    76   108   107    1
    77    99   100    1
    78    99    98    1
    79    93    91   ar
    80   100   101   ar
    81   104   103    1
    82   104   107    1
    83   104   105    1
    84   119   120    1
    85   124   123    1
    86    94    95    1
    87   123   120    1
    88    95    98    1
    89    95    96    1
    90    91    90    1
    91    91    92   ar
    92   118   116   ar
    93   105   106    2
    94   120   121    1
    95    90    87    1
    96    15    16    1
    97    15    12    1
    98    14    13    2
    99    97    96    2
   100    17    16   ar
   101    17    19   ar
   102    16    18   ar
   103    13    12    1
   104   116   117   ar
   105   116   115    1
   106    19    20   ar
   107    18    20   ar
   108   111   112    1
   109   121   122    2
   110    12    11    1
   111   115   112    1
   112    87    88    1
   113    87    86    1
   114    89    88    2
   115   112   113    1
   116    85    83   ar
   117    81    80    2
   118   113   114    2
   119    83    84   ar
   120    83    82    1
   121    80    79    1
   122    82    79    1
   123    79    78    1
