@<TRIPOS>MOLECULE
tmp/1pq5A00.pdb
 159 161 0 0 0
SMALL
GASTEIGER

@<TRIPOS>ATOM
      1  N          6.4070   10.2270    1.4560 N.3    25  TRP25      -0.1227
      2  CA         7.2220    9.0540    1.2170 C.3    25  TRP25       0.1737
      3  C          6.3440    7.8680    0.7920 C.2    25  TRP25       0.2595
      4  O          6.4800    7.3480   -0.3090 O.2    25  TRP25      -0.2718
      5  CB         8.1130    8.7450    2.4220 C.3    25  TRP25       0.0564
      6  CG         9.0420    7.6210    2.1790 C.ar   25  TRP25       0.0003
      7  CD1        9.0320    6.3960    2.7520 C.ar   25  TRP25       0.0946
      8  CD2       10.1580    7.6130    1.2520 C.ar   25  TRP25       0.0152
      9  NE1       10.0650    5.6110    2.2680 N.ar   25  TRP25      -0.2442
     10  CE2       10.7640    6.3460    1.3450 C.ar   25  TRP25       0.0810
     11  CE3       10.6790    8.5710    0.3940 C.ar   25  TRP25       0.0012
     12  CZ2       11.8680    6.0270    0.5700 C.ar   25  TRP25       0.0191
     13  CZ3       11.7980    8.2010   -0.3830 C.ar   25  TRP25       0.0001
     14  CH2       12.3500    6.9650   -0.2670 C.ar   25  TRP25       0.0015
     15  N          5.4790    7.3910    1.6990 N.am   26  CYS26      -0.1970
     16  CA         4.7050    6.1870    1.4280 C.3    26  CYS26       0.1712
     17  C          3.3590    6.2870    2.1530 C.2    26  CYS26       0.2296
     18  O          3.0660    7.2710    2.8510 O.2    26  CYS26      -0.2864
     19  CB         5.4370    4.8910    1.9790 C.3    26  CYS26       0.0983
     20  SG         6.7500    4.3270    0.7950 S.3    26  CYS26      -0.0798
     21  N          9.7480   -2.1440    0.7090 N.3    41  HIS41      -0.1241
     22  CA        10.7050   -1.2370    0.1140 C.3    41  HIS41       0.1621
     23  C         10.5980    0.1660    0.6810 C.2    41  HIS41       0.2264
     24  O         11.5540    0.9630    0.5710 O.2    41  HIS41      -0.2867
     25  CB        10.6160   -1.2570   -1.4130 C.3    41  HIS41       0.0745
     26  CG         9.5170   -0.4680   -2.0140 C.ar   41  HIS41       0.0817
     27  ND1        8.3440   -0.9980   -2.4490 N.ar   41  HIS41      -0.2268
     28  CD2        9.4830    0.8800   -2.2720 C.ar   41  HIS41       0.1154
     29  CE1        7.6020   -0.0150   -2.9570 C.ar   41  HIS41       0.1986
     30  NE2        8.2790    1.1170   -2.8680 N.ar   41  HIS41      -0.2212
     31  N         -3.9130    4.6670  -11.9990 N.3   174  ASP174     -0.1225
     32  CA        -2.9370    3.8090  -11.3520 C.3   174  ASP174      0.1805
     33  C         -2.4490    4.4770  -10.0580 C.2   174  ASP174      0.2598
     34  O         -2.7150    5.6440   -9.8010 O.2   174  ASP174     -0.2718
     35  CB        -1.7080    3.6230  -12.2710 C.3   174  ASP174      0.1424
     36  CG        -0.8470    2.4160  -12.0450 C.2   174  ASP174      0.3668
     37  OD1       -1.0430    1.6420  -11.0910 O.co2 174  ASP174     -0.2456
     38  OD2        0.0990    2.2330  -12.8950 O.co2 174  ASP174     -0.2456
     39  N         -1.7280    3.6790   -9.2730 N.am  175  SER175     -0.1938
     40  CA        -0.9010    4.1850   -8.2130 C.3   175  SER175      0.2055
     41  C          0.4650    4.5920   -8.8090 C.2   175  SER175      0.2643
     42  O          0.7960    4.2200   -9.9120 O.2   175  SER175     -0.2714
     43  CB        -0.8070    3.1490   -7.1310 C.3   175  SER175      0.2130
     44  OG        -0.3710    1.8940   -7.6200 O.3   175  SER175     -0.2179
     45  N          1.1970    5.4110   -8.0670 N.am  176  CYS176     -0.1953
     46  CA         2.4640    5.9650   -8.5460 C.3   176  CYS176      0.1843
     47  C          3.4330    6.1490   -7.4470 C.2   176  CYS176      0.2625
     48  O          3.1760    5.7240   -6.2800 O.2   176  CYS176     -0.2714
     49  CB         2.1240    7.2200   -9.3460 C.3   176  CYS176      0.0997
     50  SG         3.4600    7.8040  -10.4940 S.3   176  CYS176     -0.0797
     51  N          4.5710    6.6920   -7.6860 N.am  177  GLN177     -0.1963
     52  CA         5.5590    7.0070   -6.6580 C.3   177  GLN177      0.1733
     53  C          4.9410    7.8700   -5.5660 C.2   177  GLN177      0.2616
     54  O          4.2240    8.8380   -5.7900 O.2   177  GLN177     -0.2715
     55  CB         6.7690    7.6980   -7.2470 C.3   177  GLN177      0.0408
     56  CG         7.7810    6.6620   -7.8990 C.3   177  GLN177      0.0908
     57  CD         7.2460    5.7810   -8.9810 C.2   177  GLN177      0.2608
     58  OE1        6.6490    6.3860   -9.9420 O.2   177  GLN177     -0.2717
     59  NE2        7.3180    4.4960   -9.1230 N.am  177  GLN177     -0.0878
     60  N          5.2340    7.4820   -4.3740 N.am  178  GLY178     -0.1955
     61  CA         4.6940    8.0600   -3.1730 C.3   178  GLY178      0.1869
     62  C          3.4480    7.3480   -2.6870 C.2   178  GLY178      0.2309
     63  O          3.0550    7.5460   -1.5140 O.2   178  GLY178     -0.2863
     64  N          3.4030    3.9740   -2.6570 N.3   180  SER180     -0.1217
     65  CA         3.8740    2.6680   -2.2080 C.3   180  SER180      0.1889
     66  C          3.4930    2.4560   -0.7490 C.2   180  SER180      0.2288
     67  O          3.5630    3.3360    0.0880 O.2   180  SER180     -0.2866
     68  CB         5.3730    2.5400   -2.3680 C.3   180  SER180      0.2089
     69  OG         5.7330    2.3940   -3.7310 O.3   180  SER180     -0.2183
     70  N          0.3760   -1.1590   -2.3090 N.3   195  VAL195     -0.1231
     71  CA         1.0310   -0.6400   -3.5090 C.3   195  VAL195      0.1692
     72  C          2.4950   -1.0600   -3.4830 C.2   195  VAL195      0.2593
     73  O          3.1940   -0.8220   -2.4930 O.2   195  VAL195     -0.2718
     74  CB         0.9110    0.8940   -3.5560 C.3   195  VAL195      0.0266
     75  CG1        1.6800    1.4480   -4.7440 C.3   195  VAL195      0.0020
     76  CG2       -0.5320    1.3730   -3.6000 C.3   195  VAL195      0.0020
     77  N          2.9800   -1.6460   -4.5930 N.am  196  SER196     -0.1938
     78  CA         4.3390   -2.1800   -4.6160 C.3   196  SER196      0.2055
     79  C          5.1740   -1.6170   -5.7620 C.2   196  SER196      0.2643
     80  O          6.1320   -0.8860   -5.4740 O.2   196  SER196     -0.2714
     81  CB         4.2720   -3.6980   -4.5480 C.3   196  SER196      0.2130
     82  OG         5.5650   -4.2920   -4.5370 O.3   196  SER196     -0.2179
     83  N          4.8750   -1.9380   -7.0150 N.am  197  TRP197     -0.1959
     84  CA         5.7820   -1.5300   -8.1010 C.3   197  TRP197      0.1771
     85  C          5.0180   -1.5700   -9.4270 C.2   197  TRP197      0.2620
     86  O          3.8900   -2.0380   -9.5160 O.2   197  TRP197     -0.2715
     87  CB         7.0320   -2.4110   -8.1380 C.3   197  TRP197      0.0590
     88  CG         6.7770   -3.8550   -8.4750 C.ar  197  TRP197      0.0006
     89  CD1        6.3360   -4.8280   -7.6320 C.ar  197  TRP197      0.0946
     90  CD2        6.9550   -4.4770   -9.7750 C.ar  197  TRP197      0.0152
     91  NE1        6.2560   -6.0240   -8.3150 N.ar  197  TRP197     -0.2442
     92  CE2        6.6330   -5.8240   -9.6230 C.ar  197  TRP197      0.0810
     93  CE3        7.4070   -4.0010  -11.0070 C.ar  197  TRP197      0.0012
     94  CZ2        6.7130   -6.7540  -10.6700 C.ar  197  TRP197      0.0191
     95  CZ3        7.4720   -4.9460  -12.0520 C.ar  197  TRP197      0.0001
     96  CH2        7.1190   -6.2630  -11.8600 C.ar  197  TRP197      0.0015
     97  N          5.6830   -1.0620  -10.4580 N.am  198  GLY198     -0.1940
     98  CA         5.1530   -1.1790  -11.8210 C.3   198  GLY198      0.2014
     99  C          6.1110   -0.4910  -12.7680 C.2   198  GLY198      0.2639
    100  O          7.0940    0.1700  -12.3450 O.2   198  GLY198     -0.2714
    101  N          5.8570   -0.6040  -14.0490 N.am  199  ASN199     -0.1958
    102  CA         6.6560    0.0690  -15.1020 C.3   199  ASN199      0.1819
    103  C          6.0730    1.4690  -15.2810 C.2   199  ASN199      0.2622
    104  O          5.0410    1.6280  -15.9320 O.2   199  ASN199     -0.2715
    105  CB         6.6160   -0.7080  -16.3800 C.3   199  ASN199      0.1195
    106  CG         7.4780   -0.1190  -17.4550 C.2   199  ASN199      0.2630
    107  OD1        8.4590    0.5580  -17.1410 O.2   199  ASN199     -0.2716
    108  ND2        7.1660   -0.3710  -18.7140 N.am  199  ASN199     -0.0877
    109  N          6.7410    2.4680  -14.7040 N.am  200  GLY200     -0.1940
    110  CA         6.1580    3.8130  -14.7660 C.3   200  GLY200      0.2014
    111  C          4.8600    3.8560  -14.0070 C.2   200  GLY200      0.2639
    112  O          4.6280    3.0520  -13.0590 O.2   200  GLY200     -0.2714
    113  N          3.9850    4.8110  -14.3710 N.am  201  CYS201     -0.1967
    114  CA         2.6860    4.9100  -13.7040 C.3   201  CYS201      0.1712
    115  C          1.6640    5.1370  -14.7480 C.2   201  CYS201      0.2296
    116  O          1.7930    6.0500  -15.5650 O.2   201  CYS201     -0.2864
    117  CB         2.6060    6.0940  -12.7510 C.3   201  CYS201      0.0983
    118  SG         3.9520    6.1330  -11.5840 S.3   201  CYS201     -0.0798
    119  N          0.6680   -1.7760  -18.8820 N.3   206  TYR206     -0.1227
    120  CA         1.6000   -2.1040  -17.7760 C.3   206  TYR206      0.1736
    121  C          0.8130   -1.8680  -16.4760 C.2   206  TYR206      0.2596
    122  O          0.7050   -0.7490  -16.0130 O.2   206  TYR206     -0.2718
    123  CB         2.8940   -1.2880  -17.7890 C.3   206  TYR206      0.0548
    124  CG         3.8260   -1.7740  -18.9010 C.ar  206  TYR206     -0.0200
    125  CD1        4.6680   -2.8550  -18.7690 C.ar  206  TYR206     -0.0009
    126  CD2        3.8210   -1.0760  -20.0960 C.ar  206  TYR206     -0.0009
    127  CE1        5.5000   -3.2780  -19.7850 C.ar  206  TYR206      0.0417
    128  CE2        4.6130   -1.4600  -21.1300 C.ar  206  TYR206      0.0417
    129  CZ         5.4280   -2.5450  -20.9800 C.ar  206  TYR206      0.1957
    130  OH         6.2660   -2.9150  -22.0400 O.3   206  TYR206     -0.2866
    131  N          0.3130   -2.9660  -15.9320 N.am  207  SER207     -0.1938
    132  CA        -0.5090   -2.9080  -14.7390 C.3   207  SER207      0.2055
    133  C          0.2950   -2.4140  -13.5390 C.2   207  SER207      0.2644
    134  O          1.5070   -2.6200  -13.4420 O.2   207  SER207     -0.2714
    135  CB        -0.9640   -4.3730  -14.3910 C.3   207  SER207      0.2130
    136  OG        -1.6810   -4.9620  -15.4230 O.3   207  SER207     -0.2179
    137  N         -0.4210   -1.8650  -12.5620 N.am  208  GLY208     -0.1939
    138  CA         0.1960   -1.7450  -11.2550 C.3   208  GLY208      0.2014
    139  C          0.3030   -3.1200  -10.6110 C.2   208  GLY208      0.2639
    140  O         -0.5830   -3.9570  -10.7610 O.2   208  GLY208     -0.2714
    141  N          1.4010   -3.3230   -9.8650 N.am  209  VAL209     -0.1963
    142  CA         1.6660   -4.5860   -9.1980 C.3   209  VAL209      0.1727
    143  C          1.6130   -4.3370   -7.6830 C.2   209  VAL209      0.2616
    144  O          2.1790   -3.3620   -7.1670 O.2   209  VAL209     -0.2715
    145  CB         2.9920   -5.2260   -9.6430 C.3   209  VAL209      0.0290
    146  CG1        3.0700   -6.6480   -9.1150 C.3   209  VAL209      0.0023
    147  CG2        3.1260   -5.2080  -11.1680 C.3   209  VAL209      0.0023
    148  N          0.9270   -5.2290   -7.0050 N.am  210  TYR210     -0.1974
    149  CA         0.5740   -5.0770   -5.5990 C.3   210  TYR210      0.1639
    150  C          1.0400   -6.2950   -4.8170 C.2   210  TYR210      0.2290
    151  O          0.9140   -7.4370   -5.2870 O.2   210  TYR210     -0.2864
    152  CB        -0.9580   -4.9240   -5.4610 C.3   210  TYR210      0.0560
    153  CG        -1.4220   -3.6560   -6.1230 C.ar  210  TYR210     -0.0198
    154  CD1       -1.7510   -3.6260   -7.5050 C.ar  210  TYR210     -0.0009
    155  CD2       -1.4710   -2.4660   -5.4180 C.ar  210  TYR210     -0.0009
    156  CE1       -2.1100   -2.4250   -8.1060 C.ar  210  TYR210      0.0417
    157  CE2       -1.8190   -1.2750   -6.0390 C.ar  210  TYR210      0.0417
    158  CZ        -2.1340   -1.2540   -7.3860 C.ar  210  TYR210      0.1957
    159  OH        -2.4520   -0.0310   -7.9300 O.3   210  TYR210     -0.2866
@<TRIPOS>BOND
     1   130   129    1
     2   128   129   ar
     3   128   126   ar
     4   129   127   ar
     5   126   124   ar
     6   127   125   ar
     7   124   125   ar
     8   124   123    1
     9   119   120    1
    10   108   106   am
    11   123   120    1
    12   120   121    1
    13   106   107    2
    14   106   105    1
    15   121   122    2
    16   121   131   am
    17   105   102    1
    18   104   103    2
    19   131   132    1
    20   116   115    2
    21   136   135    1
    22   103   102    1
    23   103   109   am
    24   102   101    1
    25   110   109    1
    26   110   111    1
    27   115   114    1
    28   132   135    1
    29   132   133    1
    30   113   111   am
    31   113   114    1
    32   101    99   am
    33   111   112    2
    34   114   117    1
    35   133   134    2
    36   133   137   am
    37    38    36   ar
    38    99   100    2
    39    99    98    1
    40   117   118    1
    41   137   138    1
    42    35    36    1
    43    35    32    1
    44    95    96   ar
    45    95    93   ar
    46    36    37   ar
    47    31    32    1
    48    96    94   ar
    49    98    97    1
    50   118    50    1
    51    32    33    1
    52   138   139    1
    53   147   145    1
    54    93    90   ar
    55   140   139    2
    56    94    92   ar
    57   139   141   am
    58    50    49    1
    59    97    85   am
    60    33    34    2
    61    33    39   am
    62    58    57    2
    63    42    41    2
    64   141   142    1
    65    90    92   ar
    66    90    88   ar
    67   145   142    1
    68   145   146    1
    69    92    91   ar
    70    86    85    2
    71    85    84    1
    72    49    46    1
    73    39    40    1
    74   142   143    1
    75    59    57   am
    76    57    56    1
    77    41    40    1
    78    41    45   am
    79    46    45    1
    80    46    47    1
    81    88    87    1
    82    88    89   ar
    83    91    89   ar
    84    40    43    1
    85    87    84    1
    86   156   154   ar
    87   156   158   ar
    88    84    83    1
    89   159   158    1
    90    56    55    1
    91    51    47   am
    92    51    52    1
    93   143   144    2
    94   143   148   am
    95    44    43    1
    96   154   153   ar
    97    47    48    2
    98   158   157   ar
    99    55    52    1
   100    83    79   am
   101   148   149    1
   102    52    53    1
   103   153   152    1
   104   153   155   ar
   105   157   155   ar
   106    54    53    2
   107    79    80    2
   108    79    78    1
   109   149   152    1
   110   149   150    1
   111    53    60   am
   112   151   150    2
   113    75    74    1
   114    78    77    1
   115    78    81    1
   116    77    72   am
   117    81    82    1
   118    60    61    1
   119    69    68    1
   120    76    74    1
   121    74    71    1
   122    71    72    1
   123    71    70    1
   124    72    73    2
   125    61    62    1
   126    29    30   ar
   127    29    27   ar
   128    30    28   ar
   129    62    63    2
   130    64    65    1
   131    27    26   ar
   132    68    65    1
   133    28    26   ar
   134    65    66    1
   135    26    25    1
   136    25    22    1
   137    66    67    2
   138    13    14   ar
   139    13    11   ar
   140     4     3    2
   141    14    12   ar
   142    22    23    1
   143    22    21    1
   144    11     8   ar
   145    12    10   ar
   146    24    23    2
   147     3     2    1
   148     3    15   am
   149    20    19    1
   150     2     1    1
   151     2     5    1
   152     8    10   ar
   153     8     6   ar
   154    10     9   ar
   155    16    15    1
   156    16    19    1
   157    16    17    1
   158    17    18    2
   159     6     5    1
   160     6     7   ar
   161     9     7   ar
