@<TRIPOS>MOLECULE
tmp/1pq8A02.pdb
 88 85 0 0 0
SMALL
GASTEIGER

@<TRIPOS>ATOM
      1  N        -10.6570   11.2680   -1.8960 N.3     7  ALA7       -0.1231
      2  CA       -11.2640   10.4070   -0.9230 C.3     7  ALA7        0.1694
      3  C        -12.1100   11.2660    0.0450 C.2     7  ALA7        0.2593
      4  O        -11.7340   12.3800    0.3940 O.2     7  ALA7       -0.2718
      5  CB       -10.2210    9.6570   -0.1390 C.3     7  ALA7        0.0304
      6  N        -13.1930   10.6980    0.4860 N.am    8  SER8       -0.1938
      7  CA       -14.0380   11.3130    1.4910 C.3     8  SER8        0.2055
      8  C        -13.5680   10.9100    2.8850 C.2     8  SER8        0.2643
      9  O        -12.9490    9.8500    3.0740 O.2     8  SER8       -0.2714
     10  CB       -15.4910   10.9070    1.3080 C.3     8  SER8        0.2130
     11  OG       -15.9510   11.4010    0.0570 O.3     8  SER8       -0.2179
     12  N        -13.8880   11.6690    3.9120 N.am    9  ALA9       -0.1963
     13  CA       -13.5800   11.3590    5.2940 C.3     9  ALA9        0.1728
     14  C        -14.1180    9.9850    5.6500 C.2     9  ALA9        0.2617
     15  O        -15.2520    9.6400    5.2580 O.2     9  ALA9       -0.2715
     16  CB       -14.2540   12.3700    6.2170 C.3     9  ALA9        0.0334
     17  N        -13.3260    9.1950    6.3710 N.am   10  GLY10      -0.1940
     18  CA       -13.9540    7.9260    6.7630 C.3    10  GLY10       0.2014
     19  C        -13.9060    6.9110    5.6380 C.2    10  GLY10       0.2639
     20  O        -14.2510    5.7610    5.8980 O.2    10  GLY10      -0.2714
     21  N        -13.4720    7.3240    4.4420 N.am   11  ASP11      -0.1957
     22  CA       -13.0030    6.3820    3.4410 C.3    11  ASP11       0.1840
     23  C        -11.6740    5.8580    4.0130 C.2    11  ASP11       0.2622
     24  O        -10.9360    6.6250    4.6330 O.2    11  ASP11      -0.2715
     25  CB       -12.7560    6.9930    2.0840 C.3    11  ASP11       0.1450
     26  CG       -13.9190    7.2280    1.1600 C.2    11  ASP11       0.3671
     27  OD1      -15.0900    6.9100    1.4650 O.co2  11  ASP11      -0.2456
     28  OD2      -13.6680    7.7550    0.0340 O.co2  11  ASP11      -0.2456
     29  N        -11.4180    4.5800    3.8120 N.am   12  PHE12      -0.1960
     30  CA       -10.2090    3.9460    4.3210 C.3    12  PHE12       0.1756
     31  C         -9.8840    4.3160    5.7800 C.2    12  PHE12       0.2461
     32  O         -8.7630    4.8450    5.9850 O.2    12  PHE12      -0.2730
     33  CB        -9.0730    4.3210    3.3460 C.3    12  PHE12       0.0574
     34  CG        -9.1070    3.8140    1.9150 C.ar   12  PHE12      -0.0200
     35  CD1       -8.5520    2.5810    1.5930 C.ar   12  PHE12      -0.0042
     36  CD2       -9.6600    4.5410    0.8800 C.ar   12  PHE12      -0.0042
     37  CE1       -8.5740    2.1290    0.2900 C.ar   12  PHE12      -0.0003
     38  CE2       -9.7180    4.0880   -0.4320 C.ar   12  PHE12      -0.0003
     39  CZ        -9.1630    2.8570   -0.7160 C.ar   12  PHE12      -0.0000
     40  N        -10.6810    4.1150    6.8610 N.am   13  PRO13      -0.2727
     41  CA       -10.4060    4.5580    8.2150 C.3    13  PRO13       0.1402
     42  C         -9.0270    4.1630    8.7330 C.2    13  PRO13       0.2269
     43  O         -8.5190    4.7800    9.6620 O.2    13  PRO13      -0.2865
     44  CB       -11.4950    3.8390    9.0750 C.3    13  PRO13       0.0296
     45  CG       -12.6160    3.6790    8.0840 C.3    13  PRO13       0.0237
     46  CD       -11.9570    3.3700    6.7660 C.3    13  PRO13       0.0939
     47  N         -6.2450    4.0150    6.8110 N.3    15  ILE15      -0.1245
     48  CA        -5.0640    4.4540    6.0220 C.3    15  ILE15       0.1561
     49  C         -4.2170    5.3840    6.8460 C.2    15  ILE15       0.2260
     50  O         -4.7030    6.2750    7.5550 O.2    15  ILE15      -0.2867
     51  CB        -5.5100    5.1250    4.7010 C.3    15  ILE15       0.0252
     52  CG1       -4.3210    5.1860    3.7420 C.3    15  ILE15       0.0019
     53  CG2       -6.1570    6.4790    4.8760 C.3    15  ILE15       0.0019
     54  CD1       -4.6940    5.6430    2.3550 C.3    15  ILE15       0.0001
     55  N         -6.0160    9.0150   10.6130 N.3    56  GLY56      -0.1210
     56  CA        -7.2050    9.7790   10.9100 C.3    56  GLY56       0.1956
     57  C         -7.3030   11.0870   10.1970 C.2    56  GLY56       0.2613
     58  O         -8.1040   11.9140   10.6310 O.2    56  GLY56      -0.2717
     59  N         -6.5430   11.3080    9.1300 N.am   57  SER57      -0.1938
     60  CA        -6.5990   12.5370    8.3910 C.3    57  SER57       0.2055
     61  C         -6.5990   12.2550    6.8840 C.2    57  SER57       0.2642
     62  O         -5.9650   11.3090    6.4080 O.2    57  SER57      -0.2714
     63  CB        -5.3960   13.3880    8.7470 C.3    57  SER57       0.2130
     64  OG        -5.5490   14.6260    8.1020 O.3    57  SER57      -0.2179
     65  N         -7.2410   13.1400    6.1700 N.am   58  LEU58      -0.1977
     66  CA        -7.1140   13.1560    4.7070 C.3    58  LEU58       0.1596
     67  C         -5.8310   13.8110    4.2640 C.2    58  LEU58       0.2287
     68  O         -5.4710   13.6160    3.0810 O.2    58  LEU58      -0.2864
     69  CB        -8.2930   13.8580    4.0580 C.3    58  LEU58       0.0297
     70  CG        -9.6220   13.1290    4.2770 C.3    58  LEU58       0.0022
     71  CD1      -10.7580   13.9870    3.8100 C.3    58  LEU58       0.0001
     72  CD2       -9.6680   11.8050    3.5070 C.3    58  LEU58       0.0001
     73  N        -12.8460    8.8540   12.6150 N.3    99  ASN99      -0.1240
     74  CA       -12.3960    8.4730   11.2880 C.3    99  ASN99       0.1653
     75  C        -11.1680    7.5660   11.3100 C.2    99  ASN99       0.2266
     76  O        -10.5540    7.3640   10.2540 O.2    99  ASN99      -0.2867
     77  CB       -12.1240    9.6880   10.4320 C.3    99  ASN99       0.1155
     78  CG       -13.3860   10.3960   10.0160 C.2    99  ASN99       0.2627
     79  OD1      -14.2810    9.6770    9.5460 O.2    99  ASN99      -0.2716
     80  ND2      -13.4180   11.6840   10.0810 N.am   99  ASN99      -0.0877
     81  N         -5.8480   13.1040    0.3040 N.3   137  LEU137     -0.1245
     82  CA        -5.8400   11.7270   -0.1930 C.3   137  LEU137      0.1561
     83  C         -6.6660   11.5820   -1.4590 C.2   137  LEU137      0.2260
     84  O         -7.7990   12.0390   -1.5210 O.2   137  LEU137     -0.2867
     85  CB        -6.4490   10.8610    0.9270 C.3   137  LEU137      0.0270
     86  CG        -6.4490    9.3490    0.6610 C.3   137  LEU137      0.0019
     87  CD1       -5.0610    8.7860    0.5260 C.3   137  LEU137      0.0001
     88  CD2       -7.2330    8.6490    1.7570 C.3   137  LEU137      0.0001
@<TRIPOS>BOND
     1     1     2    1
     2    84    83    2
     3    83    82    1
     4     2     5    1
     5     2     3    1
     6    39    38   ar
     7    39    37   ar
     8    38    36   ar
     9    82    81    1
    10    82    85    1
    11    28    26   ar
    12     3     4    2
    13     3     6   am
    14    11    10    1
    15    37    35   ar
    16     6     7    1
    17    87    86    1
    18    86    85    1
    19    86    88    1
    20    36    34   ar
    21    26    27   ar
    22    26    25    1
    23    10     7    1
    24     7     8    1
    25    35    34   ar
    26    34    33    1
    27    25    22    1
    28    54    52    1
    29     8     9    2
    30     8    12   am
    31    68    67    2
    32    33    30    1
    33    22    23    1
    34    22    21    1
    35    72    70    1
    36    52    51    1
    37    71    70    1
    38    29    23   am
    39    29    30    1
    40    12    13    1
    41    23    24    2
    42    69    70    1
    43    69    66    1
    44    67    66    1
    45    30    31    1
    46    21    19   am
    47    51    53    1
    48    51    48    1
    49    66    65    1
    50    15    14    2
    51    13    14    1
    52    13    16    1
    53    19    20    2
    54    19    18    1
    55    14    17   am
    56    31    32    2
    57    31    40   am
    58    48    47    1
    59    48    49    1
    60    65    61   am
    61    17    18    1
    62    62    61    2
    63    46    40    1
    64    46    45    1
    65    49    50    2
    66    40    41    1
    67    61    60    1
    68    45    44    1
    69    64    63    1
    70    41    42    1
    71    41    44    1
    72    60    63    1
    73    60    59    1
    74    42    43    2
    75    59    57   am
    76    79    78    2
    77    78    80   am
    78    78    77    1
    79    57    58    2
    80    57    56    1
    81    76    75    2
    82    77    74    1
    83    55    56    1
    84    74    75    1
    85    74    73    1
