@<TRIPOS>MOLECULE
tmp/1pq8A01.pdb
 115 114 0 0 0
SMALL
GASTEIGER

@<TRIPOS>ATOM
      1  N          6.3670   10.2920    1.4180 N.3    25  TRP25      -0.1241
      2  CA         7.1560    9.0800    1.1560 C.3    25  TRP25       0.1605
      3  C          6.2970    7.9120    0.7540 C.2    25  TRP25       0.2264
      4  O          6.4110    7.4030   -0.3590 O.2    25  TRP25      -0.2867
      5  CB         8.0440    8.7870    2.3920 C.3    25  TRP25       0.0550
      6  CG         8.9930    7.6790    2.1500 C.ar   25  TRP25       0.0003
      7  CD1        8.9980    6.4300    2.7020 C.ar   25  TRP25       0.0946
      8  CD2       10.1320    7.7140    1.2630 C.ar   25  TRP25       0.0152
      9  NE1       10.0400    5.6850    2.2220 N.ar   25  TRP25      -0.2442
     10  CE2       10.7480    6.4540    1.3370 C.ar   25  TRP25       0.0810
     11  CE3       10.6850    8.6820    0.4110 C.ar   25  TRP25       0.0012
     12  CZ2       11.8970    6.1470    0.5800 C.ar   25  TRP25       0.0191
     13  CZ3       11.8200    8.3940   -0.3420 C.ar   25  TRP25       0.0001
     14  CH2       12.3850    7.1490   -0.2240 C.ar   25  TRP25       0.0015
     15  N          9.7780   -2.1190    0.7090 N.3    41  HIS41      -0.1241
     16  CA        10.7370   -1.2020    0.0790 C.3    41  HIS41       0.1621
     17  C         10.6180    0.1880    0.6430 C.2    41  HIS41       0.2264
     18  O         11.5530    0.9970    0.4830 O.2    41  HIS41      -0.2867
     19  CB        10.5970   -1.2230   -1.4350 C.3    41  HIS41       0.0745
     20  CG         9.5020   -0.4500   -2.0210 C.ar   41  HIS41       0.0817
     21  ND1        8.3060   -0.9800   -2.4460 N.ar   41  HIS41      -0.2268
     22  CD2        9.4600    0.8770   -2.3150 C.ar   41  HIS41       0.1154
     23  CE1        7.5630   -0.0010   -2.9530 C.ar   41  HIS41       0.1986
     24  NE2        8.2520    1.1470   -2.8600 N.ar   41  HIS41      -0.2212
     25  N         -4.0040    4.5330  -11.9910 N.3   174  ASP174     -0.1225
     26  CA        -2.9950    3.7160  -11.3440 C.3   174  ASP174      0.1805
     27  C         -2.5460    4.4030  -10.0580 C.2   174  ASP174      0.2598
     28  O         -2.7920    5.5660   -9.7910 O.2   174  ASP174     -0.2718
     29  CB        -1.8070    3.5240  -12.2630 C.3   174  ASP174      0.1424
     30  CG        -0.8820    2.3670  -12.0150 C.2   174  ASP174      0.3668
     31  OD1       -1.0920    1.5730  -11.0950 O.co2 174  ASP174     -0.2456
     32  OD2        0.0810    2.1880  -12.8310 O.co2 174  ASP174     -0.2456
     33  N         -1.8300    3.6050   -9.2610 N.am  175  SER175     -0.1938
     34  CA        -0.9870    4.1210   -8.1990 C.3   175  SER175      0.2055
     35  C          0.3410    4.5960   -8.8160 C.2   175  SER175      0.2643
     36  O          0.6630    4.2480   -9.9550 O.2   175  SER175     -0.2714
     37  CB        -0.8180    3.0850   -7.1080 C.3   175  SER175      0.2130
     38  OG        -0.4190    1.8440   -7.6420 O.3   175  SER175     -0.2179
     39  N          1.0500    5.4090   -8.0650 N.am  176  CYS176     -0.1953
     40  CA         2.3300    5.9520   -8.5630 C.3   176  CYS176      0.1843
     41  C          3.3060    6.1290   -7.4290 C.2   176  CYS176      0.2625
     42  O          3.1040    5.7080   -6.3010 O.2   176  CYS176     -0.2714
     43  CB         2.1350    7.2590   -9.2890 C.3   176  CYS176      0.0997
     44  SG         3.3920    7.7530  -10.5140 S.3   176  CYS176     -0.0797
     45  N          4.4350    6.7520   -7.7300 N.am  177  GLN177     -0.1963
     46  CA         5.4620    7.0330   -6.7180 C.3   177  GLN177      0.1733
     47  C          4.8540    7.8660   -5.6140 C.2   177  GLN177      0.2616
     48  O          4.1050    8.7980   -5.8700 O.2   177  GLN177     -0.2715
     49  CB         6.6300    7.7800   -7.3850 C.3   177  GLN177      0.0408
     50  CG         7.6280    6.8010   -7.9980 C.3   177  GLN177      0.0908
     51  CD         7.1500    6.1120   -9.2610 C.2   177  GLN177      0.2608
     52  OE1        6.8300    6.7220  -10.2950 O.2   177  GLN177     -0.2717
     53  NE2        7.1050    4.7690   -9.2710 N.am  177  GLN177     -0.0878
     54  N          5.1290    7.4850   -4.4010 N.am  178  GLY178     -0.1955
     55  CA         4.5640    8.0860   -3.2150 C.3   178  GLY178      0.1869
     56  C          3.3390    7.3910   -2.7140 C.2   178  GLY178      0.2309
     57  O          2.9340    7.6490   -1.5800 O.2   178  GLY178     -0.2863
     58  N          3.3460    3.9800   -2.7020 N.3   180  SER180     -0.1217
     59  CA         3.8380    2.6990   -2.2370 C.3   180  SER180      0.1889
     60  C          3.4800    2.4560   -0.7750 C.2   180  SER180      0.2288
     61  O          3.4910    3.3720    0.0600 O.2   180  SER180     -0.2866
     62  CB         5.3530    2.5830   -2.3620 C.3   180  SER180      0.2089
     63  OG         5.7200    2.5460   -3.7240 O.3   180  SER180     -0.2183
     64  N          0.3740   -1.1930   -2.3080 N.3   195  VAL195     -0.1231
     65  CA         1.0430   -0.6690   -3.5050 C.3   195  VAL195      0.1692
     66  C          2.5170   -1.0740   -3.4710 C.2   195  VAL195      0.2593
     67  O          3.2030   -0.8170   -2.4910 O.2   195  VAL195     -0.2718
     68  CB         0.9130    0.8560   -3.5870 C.3   195  VAL195      0.0266
     69  CG1        1.6660    1.4200   -4.7720 C.3   195  VAL195      0.0020
     70  CG2       -0.5290    1.3190   -3.6160 C.3   195  VAL195      0.0020
     71  N          2.9840   -1.6770   -4.5820 N.am  196  SER196     -0.1938
     72  CA         4.3450   -2.2080   -4.5830 C.3   196  SER196      0.2055
     73  C          5.1980   -1.6790   -5.7230 C.2   196  SER196      0.2643
     74  O          6.1680   -0.9800   -5.4230 O.2   196  SER196     -0.2714
     75  CB         4.2890   -3.7190   -4.5050 C.3   196  SER196      0.2130
     76  OG         5.5620   -4.3300   -4.4840 O.3   196  SER196     -0.2179
     77  N          4.9130   -1.9680   -6.9760 N.am  197  TRP197     -0.1959
     78  CA         5.8290   -1.5780   -8.0620 C.3   197  TRP197      0.1771
     79  C          5.0710   -1.6210   -9.3810 C.2   197  TRP197      0.2620
     80  O          3.9420   -2.0650   -9.4840 O.2   197  TRP197     -0.2715
     81  CB         7.0500   -2.4550   -8.0760 C.3   197  TRP197      0.0590
     82  CG         6.8160   -3.8950   -8.4220 C.ar  197  TRP197      0.0006
     83  CD1        6.3790   -4.8710   -7.6020 C.ar  197  TRP197      0.0946
     84  CD2        7.0340   -4.5350   -9.6940 C.ar  197  TRP197      0.0152
     85  NE1        6.3120   -6.0700   -8.2490 N.ar  197  TRP197     -0.2442
     86  CE2        6.7090   -5.8850   -9.5490 C.ar  197  TRP197      0.0810
     87  CE3        7.4910   -4.0680  -10.9320 C.ar  197  TRP197      0.0012
     88  CZ2        6.7980   -6.8280  -10.5760 C.ar  197  TRP197      0.0191
     89  CZ3        7.5780   -4.9720  -11.9620 C.ar  197  TRP197      0.0001
     90  CH2        7.2380   -6.3340  -11.7860 C.ar  197  TRP197      0.0015
     91  N          5.7520   -1.1330  -10.4110 N.am  198  GLY198     -0.1954
     92  CA         5.2150   -1.2220  -11.7780 C.3   198  GLY198      0.1869
     93  C          6.1350   -0.4880  -12.7160 C.2   198  GLY198      0.2309
     94  O          7.1140    0.1380  -12.3210 O.2   198  GLY198     -0.2863
     95  N          6.6500    2.4530  -14.7380 N.3   200  GLY200     -0.1210
     96  CA         6.0610    3.7490  -14.7790 C.3   200  GLY200      0.1956
     97  C          4.7520    3.7750  -14.0110 C.2   200  GLY200      0.2612
     98  O          4.5390    2.9860  -13.1050 O.2   200  GLY200     -0.2717
     99  N          3.8620    4.6930  -14.3760 N.am  201  CYS201     -0.1970
    100  CA         2.5720    4.8320  -13.7150 C.3   201  CYS201      0.1712
    101  C          1.5060    5.0610  -14.7950 C.2   201  CYS201      0.2296
    102  O          1.6400    5.9750  -15.5870 O.2   201  CYS201     -0.2864
    103  CB         2.4950    6.0440  -12.7500 C.3   201  CYS201      0.0983
    104  SG         3.8680    6.1020  -11.6140 S.3   201  CYS201     -0.0798
    105  N         -0.3810   -1.9370  -12.5710 N.3   208  GLY208     -0.1210
    106  CA         0.2220   -1.8130  -11.2540 C.3   208  GLY208      0.1956
    107  C          0.3700   -3.1680  -10.5930 C.2   208  GLY208      0.2611
    108  O         -0.5130   -4.0140  -10.7460 O.2   208  GLY208     -0.2717
    109  N          1.4440   -3.3380   -9.8430 N.am  209  VAL209     -0.1979
    110  CA         1.7240   -4.5780   -9.1420 C.3   209  VAL209      0.1595
    111  C          1.6470   -4.3420   -7.6340 C.2   209  VAL209      0.2287
    112  O          2.1990   -3.3640   -7.1240 O.2   209  VAL209     -0.2864
    113  CB         3.0450   -5.2310   -9.5720 C.3   209  VAL209      0.0276
    114  CG1        3.1220   -6.6620   -9.0400 C.3   209  VAL209      0.0022
    115  CG2        3.2150   -5.2300  -11.0810 C.3   209  VAL209      0.0022
@<TRIPOS>BOND
     1   102   101    2
     2   101   100    1
     3    96    95    1
     4    96    97    1
     5    99    97   am
     6    99   100    1
     7    97    98    2
     8   100   103    1
     9    32    30   ar
    10   103   104    1
    11    93    94    2
    12    93    92    1
    13   105   106    1
    14    29    30    1
    15    29    26    1
    16    30    31   ar
    17    25    26    1
    18    89    90   ar
    19    89    87   ar
    20    90    88   ar
    21    92    91    1
    22   104    44    1
    23    26    27    1
    24   106   107    1
    25   115   113    1
    26    87    84   ar
    27   108   107    2
    28   107   109   am
    29    88    86   ar
    30    44    43    1
    31    91    79   am
    32    52    51    2
    33    27    28    2
    34    27    33   am
    35    36    35    2
    36   109   110    1
    37    84    86   ar
    38    84    82   ar
    39   113   110    1
    40   113   114    1
    41    86    85   ar
    42    80    79    2
    43    79    78    1
    44    43    40    1
    45    53    51   am
    46    33    34    1
    47    51    50    1
    48   110   111    1
    49    35    34    1
    50    35    39   am
    51    40    39    1
    52    40    41    1
    53    82    81    1
    54    82    83   ar
    55    85    83   ar
    56    34    37    1
    57    81    78    1
    58    78    77    1
    59    50    49    1
    60    45    41   am
    61    45    46    1
    62    38    37    1
    63   111   112    2
    64    41    42    2
    65    49    46    1
    66    77    73   am
    67    46    47    1
    68    48    47    2
    69    73    74    2
    70    73    72    1
    71    47    54   am
    72    69    68    1
    73    72    71    1
    74    72    75    1
    75    71    66   am
    76    75    76    1
    77    54    55    1
    78    63    62    1
    79    70    68    1
    80    68    65    1
    81    65    66    1
    82    65    64    1
    83    66    67    2
    84    55    56    1
    85    23    24   ar
    86    23    21   ar
    87    24    22   ar
    88    56    57    2
    89    58    59    1
    90    21    20   ar
    91    62    59    1
    92    22    20   ar
    93    59    60    1
    94    20    19    1
    95    19    16    1
    96    60    61    2
    97     4     3    2
    98    13    14   ar
    99    13    11   ar
   100    14    12   ar
   101    16    17    1
   102    16    15    1
   103    11     8   ar
   104    18    17    2
   105    12    10   ar
   106     3     2    1
   107     2     1    1
   108     2     5    1
   109     8    10   ar
   110     8     6   ar
   111    10     9   ar
   112     6     5    1
   113     6     7   ar
   114     9     7   ar
