@<TRIPOS>MOLECULE
tmp/1pq9A01.pdb
 167 158 0 0 0
SMALL
GASTEIGER

@<TRIPOS>ATOM
      1  N        -18.3410   39.6650   33.8540 N.3    42  PHE42      -0.1241
      2  CA       -17.7910   40.0640   35.1480 C.3    42  PHE42       0.1605
      3  C        -18.6120   39.4410   36.2650 C.2    42  PHE42       0.2264
      4  O        -18.0620   38.8010   37.1560 O.2    42  PHE42      -0.2867
      5  CB       -17.7850   41.5830   35.3210 C.3    42  PHE42       0.0534
      6  CG       -17.2760   42.0270   36.6650 C.ar   42  PHE42      -0.0203
      7  CD1      -15.9880   41.7130   37.0640 C.ar   42  PHE42      -0.0042
      8  CD2      -18.0880   42.7240   37.5400 C.ar   42  PHE42      -0.0042
      9  CE1      -15.5090   42.1150   38.3050 C.ar   42  PHE42      -0.0003
     10  CE2      -17.6110   43.1250   38.7790 C.ar   42  PHE42      -0.0003
     11  CZ       -16.3260   42.8180   39.1590 C.ar   42  PHE42      -0.0000
     12  N        -17.9580   35.8460   36.7610 N.3    45  PHE45      -0.1227
     13  CA       -16.7160   35.6030   37.4820 C.3    45  PHE45       0.1736
     14  C        -16.9050   35.8120   38.9740 C.2    45  PHE45       0.2596
     15  O        -16.4180   35.0550   39.8000 O.2    45  PHE45      -0.2718
     16  CB       -15.5970   36.5220   36.9650 C.3    45  PHE45       0.0547
     17  CG       -14.6870   35.8590   35.9710 C.ar   45  PHE45      -0.0202
     18  CD1      -15.2020   35.2180   34.8610 C.ar   45  PHE45      -0.0042
     19  CD2      -13.3090   35.8750   36.1540 C.ar   45  PHE45      -0.0042
     20  CE1      -14.3610   34.5960   33.9420 C.ar   45  PHE45      -0.0003
     21  CE2      -12.4660   35.2510   35.2510 C.ar   45  PHE45      -0.0003
     22  CZ       -12.9890   34.6120   34.1420 C.ar   45  PHE45      -0.0000
     23  N        -17.6050   36.8800   39.2850 N.am   46  THR46      -0.1953
     24  CA       -17.9250   37.2930   40.6360 C.3    46  THR46       0.1897
     25  C        -18.7790   36.2160   41.3810 C.2    46  THR46       0.2313
     26  O        -18.6050   35.9640   42.5690 O.2    46  THR46      -0.2863
     27  CB       -18.6480   38.6830   40.4900 C.3    46  THR46       0.1794
     28  OG1      -17.8020   39.7350   40.9750 O.3    46  THR46      -0.2208
     29  CG2      -19.8870   38.7850   41.2510 C.3    46  THR46       0.0378
     30  N        -16.5090   33.2770   42.1430 N.3    49  ALA49      -0.1245
     31  CA       -15.6860   33.6140   43.2890 C.3    49  ALA49       0.1562
     32  C        -16.4290   33.4110   44.6270 C.2    49  ALA49       0.2260
     33  O        -15.8480   32.9570   45.6160 O.2    49  ALA49      -0.2867
     34  CB       -15.2260   35.0350   43.1610 C.3    49  ALA49       0.0290
     35  N         -8.1310   34.8490   49.1010 N.3    83  ILE83      -0.1245
     36  CA        -7.6510   35.0130   47.7210 C.3    83  ILE83       0.1561
     37  C         -6.4610   34.0900   47.4430 C.2    83  ILE83       0.2260
     38  O         -6.2980   33.6160   46.3160 O.2    83  ILE83      -0.2867
     39  CB        -7.2600   36.4530   47.3920 C.3    83  ILE83       0.0252
     40  CG1       -6.9970   36.6220   45.8750 C.3    83  ILE83       0.0019
     41  CG2       -6.0240   36.8840   48.1810 C.3    83  ILE83       0.0019
     42  CD1       -8.2370   36.3180   45.0000 C.3    83  ILE83       0.0001
     43  N         -7.7330   30.6310   46.9070 N.3    86  MET86      -0.1230
     44  CA        -8.2920   30.6340   45.5740 C.3    86  MET86       0.1702
     45  C         -7.2500   30.4970   44.4780 C.2    86  MET86       0.2592
     46  O         -7.5170   29.8820   43.4190 O.2    86  MET86      -0.2718
     47  CB        -9.0740   31.8930   45.3290 C.3    86  MET86       0.0401
     48  CG       -10.4510   31.9090   46.0250 C.3    86  MET86       0.0596
     49  SD       -11.2190   33.6000   46.0210 S.3    86  MET86      -0.1393
     50  CE       -12.6160   33.3170   45.1500 C.3    86  MET86       0.0692
     51  N         -6.0890   31.1180   44.6850 N.am   87  LEU87      -0.1980
     52  CA        -5.0050   31.0020   43.7270 C.3    87  LEU87       0.1596
     53  C         -4.4330   29.5880   43.6930 C.2    87  LEU87       0.2287
     54  O         -4.1610   29.0630   42.6320 O.2    87  LEU87      -0.2864
     55  CB        -3.9020   31.9960   44.0510 C.3    87  LEU87       0.0297
     56  CG        -4.2670   33.4310   43.6800 C.3    87  LEU87       0.0022
     57  CD1       -3.4280   34.3980   44.4940 C.3    87  LEU87       0.0001
     58  CD2       -4.0430   33.6830   42.2420 C.3    87  LEU87       0.0001
     59  N         -7.1360   27.3820   41.9530 N.3    90  THR90      -0.1218
     60  CA        -7.0620   27.6780   40.5380 C.3    90  THR90       0.1862
     61  C         -5.9040   26.9080   39.8970 C.2    90  THR90       0.2287
     62  O         -6.0260   26.3810   38.7810 O.2    90  THR90      -0.2866
     63  CB        -6.8520   29.1820   40.3250 C.3    90  THR90       0.1770
     64  OG1       -8.0130   29.9020   40.7440 O.3    90  THR90      -0.2211
     65  CG2       -6.6910   29.5310   38.8100 C.3    90  THR90       0.0375
     66  N        -10.8820   35.6910   30.7950 N.3   114  PHE114     -0.1241
     67  CA       -10.5900   36.5970   31.9180 C.3   114  PHE114      0.1605
     68  C        -10.6060   38.0710   31.4830 C.2   114  PHE114      0.2264
     69  O        -11.1400   38.9280   32.1830 O.2   114  PHE114     -0.2867
     70  CB        -9.2160   36.2990   32.5310 C.3   114  PHE114      0.0534
     71  CG        -9.2000   35.1940   33.5730 C.ar  114  PHE114     -0.0203
     72  CD1       -9.4930   33.8820   33.2310 C.ar  114  PHE114     -0.0042
     73  CD2       -8.8040   35.4640   34.8780 C.ar  114  PHE114     -0.0042
     74  CE1       -9.4370   32.8620   34.1660 C.ar  114  PHE114     -0.0003
     75  CE2       -8.7420   34.4460   35.8350 C.ar  114  PHE114     -0.0003
     76  CZ        -9.0620   33.1400   35.4720 C.ar  114  PHE114     -0.0000
     77  N        -11.0620   42.1560   33.4550 N.3   119  LEU119     -0.1245
     78  CA        -9.8140   42.0630   34.2240 C.3   119  LEU119      0.1561
     79  C         -8.5610   42.5340   33.4640 C.2   119  LEU119      0.2260
     80  O         -8.3540   42.1990   32.3050 O.2   119  LEU119     -0.2867
     81  CB        -9.5980   40.6280   34.7160 C.3   119  LEU119      0.0270
     82  CG       -10.7120   39.9230   35.5090 C.3   119  LEU119      0.0019
     83  CD1      -10.1310   38.7420   36.2480 C.3   119  LEU119      0.0001
     84  CD2      -11.4100   40.8330   36.4840 C.3   119  LEU119      0.0001
     85  N         -3.1680   41.5140   36.4190 N.3   123  PHE123     -0.1241
     86  CA        -3.6880   40.4060   37.2380 C.3   123  PHE123      0.1605
     87  C         -3.6750   39.0630   36.4800 C.2   123  PHE123      0.2264
     88  O         -3.2100   38.0690   37.0030 O.2   123  PHE123     -0.2867
     89  CB        -5.1070   40.7520   37.7140 C.3   123  PHE123      0.0534
     90  CG        -5.6660   39.8270   38.7890 C.ar  123  PHE123     -0.0203
     91  CD1       -4.8710   39.3030   39.7950 C.ar  123  PHE123     -0.0042
     92  CD2       -7.0140   39.5080   38.7880 C.ar  123  PHE123     -0.0042
     93  CE1       -5.4220   38.4750   40.7900 C.ar  123  PHE123     -0.0003
     94  CE2       -7.5680   38.6700   39.7640 C.ar  123  PHE123     -0.0003
     95  CZ        -6.7760   38.1600   40.7620 C.ar  123  PHE123     -0.0000
     96  N         -1.5130   35.2100   37.4550 N.3   127  ILE127     -0.1245
     97  CA        -2.3980   34.0820   37.8040 C.3   127  ILE127      0.1561
     98  C         -1.9920   32.8440   37.0100 C.2   127  ILE127      0.2260
     99  O         -1.7600   31.7740   37.5700 O.2   127  ILE127     -0.2867
    100  CB        -3.9070   34.4340   37.5450 C.3   127  ILE127      0.0252
    101  CG1       -4.5120   35.2600   38.6710 C.3   127  ILE127      0.0019
    102  CG2       -4.7660   33.1760   37.4040 C.3   127  ILE127      0.0019
    103  CD1       -3.5460   36.2290   39.3870 C.3   127  ILE127      0.0001
    104  N         -4.0640   41.2940   43.4110 N.3   209  HIS209     -0.1241
    105  CA        -5.5250   41.1110   43.3610 C.3   209  HIS209      0.1621
    106  C         -6.2260   42.3760   43.8570 C.2   209  HIS209      0.2264
    107  O         -7.1430   42.8450   43.2240 O.2   209  HIS209     -0.2867
    108  CB        -6.0140   39.8860   44.1550 C.3   209  HIS209      0.0745
    109  CG        -7.5100   39.8120   44.2610 C.ar  209  HIS209      0.0817
    110  ND1       -8.1970   40.1640   45.4050 N.ar  209  HIS209     -0.2268
    111  CD2       -8.4520   39.4870   43.3460 C.ar  209  HIS209      0.1154
    112  CE1       -9.4940   40.0580   45.1860 C.ar  209  HIS209      0.1986
    113  NE2       -9.6770   39.6290   43.9510 N.ar  209  HIS209     -0.2212
    114  N         -6.5020   44.9610   41.3110 N.3   212  GLN212     -0.1231
    115  CA        -7.5510   44.6700   40.3460 C.3   212  GLN212      0.1698
    116  C         -8.9030   45.1600   40.8510 C.2   212  GLN212      0.2592
    117  O         -9.6650   45.7460   40.0750 O.2   212  GLN212     -0.2718
    118  CB        -7.5830   43.1840   40.0260 C.3   212  GLN212      0.0381
    119  CG        -8.6610   42.7650   39.0580 C.3   212  GLN212      0.0905
    120  CD        -8.4420   43.3050   37.6850 C.2   212  GLN212      0.2608
    121  OE1       -7.8640   42.6300   36.8450 O.2   212  GLN212     -0.2717
    122  NE2       -8.9100   44.5160   37.4410 N.am  212  GLN212     -0.0878
    123  N         -9.1810   44.9620   42.1400 N.am  213  VAL213     -0.1980
    124  CA       -10.4560   45.3750   42.7380 C.3   213  VAL213      0.1595
    125  C        -10.6110   46.9040   42.7170 C.2   213  VAL213      0.2287
    126  O        -11.6820   47.4270   42.4080 O.2   213  VAL213     -0.2864
    127  CB       -10.6180   44.8580   44.2040 C.3   213  VAL213      0.0276
    128  CG1      -11.8880   45.4230   44.8490 C.3   213  VAL213      0.0022
    129  CG2      -10.6380   43.3280   44.2580 C.3   213  VAL213      0.0022
    130  N        -11.1680   48.0900   39.2070 N.3   216  LEU216     -0.1245
    131  CA       -12.4930   47.7440   38.7080 C.3   216  LEU216      0.1561
    132  C        -13.4700   48.7940   39.1540 C.2   216  LEU216      0.2260
    133  O        -14.3440   49.1830   38.3960 O.2   216  LEU216     -0.2867
    134  CB       -12.9500   46.3720   39.2190 C.3   216  LEU216      0.0270
    135  CG       -12.4140   45.1770   38.4360 C.3   216  LEU216      0.0019
    136  CD1      -12.6200   43.9070   39.2500 C.3   216  LEU216      0.0001
    137  CD2      -13.0770   45.0680   37.0810 C.3   216  LEU216      0.0001
    138  N        -17.6010   45.2820   43.6840 N.3   223  LEU223     -0.1245
    139  CA       -17.8080   43.9510   44.2310 C.3   223  LEU223      0.1561
    140  C        -19.2010   43.8540   44.8640 C.2   223  LEU223      0.2260
    141  O        -19.6490   44.7820   45.5390 O.2   223  LEU223     -0.2867
    142  CB       -16.7510   43.6440   45.2890 C.3   223  LEU223      0.0270
    143  CG       -15.3340   43.4010   44.8000 C.3   223  LEU223      0.0019
    144  CD1      -14.3950   43.2790   45.9860 C.3   223  LEU223      0.0001
    145  CD2      -15.2760   42.1330   43.9540 C.3   223  LEU223      0.0001
    146  N        -18.5560   39.5260   48.5590 N.3   227  LEU227     -0.1245
    147  CA       -17.1230   39.7180   48.3280 C.3   227  LEU227      0.1561
    148  C        -16.6310   41.0500   48.8690 C.2   227  LEU227      0.2260
    149  O        -15.4480   41.1880   49.1560 O.2   227  LEU227     -0.2867
    150  CB       -16.7800   39.6050   46.8330 C.3   227  LEU227      0.0270
    151  CG       -17.1450   38.2810   46.1390 C.3   227  LEU227      0.0019
    152  CD1      -16.9170   38.3290   44.6300 C.3   227  LEU227      0.0001
    153  CD2      -16.3790   37.1370   46.7430 C.3   227  LEU227      0.0001
    154  N        -13.0020   42.0570   50.6410 N.3   231  TRP231     -0.1241
    155  CA       -11.9220   42.6540   49.8210 C.3   231  TRP231      0.1605
    156  C        -11.8490   44.1770   49.5530 C.2   231  TRP231      0.2264
    157  O        -10.7840   44.6560   49.1280 O.2   231  TRP231     -0.2867
    158  CB       -11.8980   41.9720   48.4530 C.3   231  TRP231      0.0550
    159  CG       -11.5040   40.5490   48.4840 C.ar  231  TRP231      0.0003
    160  CD1      -10.6140   39.9620   49.3300 C.ar  231  TRP231      0.0946
    161  CD2      -11.9550   39.5170   47.5990 C.ar  231  TRP231      0.0152
    162  NE1      -10.4970   38.6210   49.0440 N.ar  231  TRP231     -0.2442
    163  CE2      -11.3020   38.3170   47.9810 C.ar  231  TRP231      0.0810
    164  CE3      -12.8340   39.4800   46.5200 C.ar  231  TRP231      0.0012
    165  CZ2      -11.5090   37.1060   47.3300 C.ar  231  TRP231      0.0191
    166  CZ3      -13.0430   38.2770   45.8750 C.ar  231  TRP231      0.0001
    167  CH2      -12.3760   37.1020   46.2810 C.ar  231  TRP231      0.0015
@<TRIPOS>BOND
     1    66    67    1
     2    68    67    1
     3    68    69    2
     4    67    70    1
     5    80    79    2
     6    70    71    1
     7    72    71   ar
     8    72    74   ar
     9    77    78    1
    10    79    78    1
    11    71    73   ar
    12     1     2    1
    13    20    22   ar
    14    20    18   ar
    15    22    21   ar
    16    74    76   ar
    17    78    81    1
    18    81    82    1
    19    18    17   ar
    20    73    75   ar
    21     2     5    1
    22     2     3    1
    23    21    19   ar
    24     5     6    1
    25    76    75   ar
    26    82    83    1
    27    82    84    1
    28    17    19   ar
    29    17    16    1
    30     3     4    2
    31    85    86    1
    32    87    88    2
    33    87    86    1
    34     6     7   ar
    35     6     8   ar
    36    12    13    1
    37   121   120    2
    38    16    13    1
    39    98    99    2
    40    98    97    1
    41     7     9   ar
    42   137   135    1
    43    86    89    1
    44   102   100    1
    45   122   120   am
    46    96    97    1
    47    13    14    1
    48     8    10   ar
    49   100    97    1
    50   100   101    1
    51   120   119    1
    52    89    90    1
    53     9    11   ar
    54   133   132    2
    55   135   134    1
    56   135   136    1
    57   101   103    1
    58   131   132    1
    59   131   130    1
    60   131   134    1
    61    10    11   ar
    62    62    61    2
    63    92    90   ar
    64    92    94   ar
    65    90    91   ar
    66    65    63    1
    67    14    23   am
    68    14    15    2
    69   119   118    1
    70    23    24    1
    71    94    95   ar
    72    91    93   ar
    73    61    60    1
    74   118   115    1
    75   117   116    2
    76    63    60    1
    77    63    64    1
    78   115   116    1
    79   115   114    1
    80    27    24    1
    81    27    28    1
    82    27    29    1
    83    60    59    1
    84    24    25    1
    85    95    93   ar
    86   116   123   am
    87    25    26    2
    88   123   124    1
    89    30    31    1
    90    58    56    1
    91   126   125    2
    92    54    53    2
    93   125   124    1
    94   124   127    1
    95    34    31    1
    96   107   106    2
    97    31    32    1
    98   111   113   ar
    99   111   109   ar
   100   105   104    1
   101   105   106    1
   102   105   108    1
   103    46    45    2
   104    56    55    1
   105    56    57    1
   106   138   139    1
   107    53    52    1
   108    52    55    1
   109    52    51    1
   110   113   112   ar
   111   145   143    1
   112   108   109    1
   113   127   129    1
   114   127   128    1
   115   139   140    1
   116   139   142    1
   117   109   110   ar
   118    45    51   am
   119    45    44    1
   120    32    33    2
   121   152   151    1
   122   143   142    1
   123   143   144    1
   124   140   141    2
   125    42    40    1
   126    50    49    1
   127   112   110   ar
   128    47    44    1
   129    47    48    1
   130    44    43    1
   131   166   167   ar
   132   166   164   ar
   133    40    39    1
   134    49    48    1
   135   151   153    1
   136   151   150    1
   137   167   165   ar
   138    38    37    2
   139   164   161   ar
   140   150   147    1
   141   165   163   ar
   142    39    36    1
   143    39    41    1
   144    37    36    1
   145   161   163   ar
   146   161   159   ar
   147    36    35    1
   148   163   162   ar
   149   147   146    1
   150   147   148    1
   151   158   159    1
   152   158   155    1
   153   159   160   ar
   154   148   149    2
   155   162   160   ar
   156   157   156    2
   157   156   155    1
   158   155   154    1
