@<TRIPOS>MOLECULE
tmp/1pq9A00.pdb
 98 92 0 0 0
SMALL
GASTEIGER

@<TRIPOS>ATOM
      1  N        -17.9580   35.8460   36.7610 N.3    45  PHE45      -0.1241
      2  CA       -16.7160   35.6030   37.4820 C.3    45  PHE45       0.1605
      3  C        -16.9050   35.8120   38.9740 C.2    45  PHE45       0.2264
      4  O        -16.4180   35.0550   39.8000 O.2    45  PHE45      -0.2867
      5  CB       -15.5970   36.5220   36.9650 C.3    45  PHE45       0.0534
      6  CG       -14.6870   35.8590   35.9710 C.ar   45  PHE45      -0.0203
      7  CD1      -15.2020   35.2180   34.8610 C.ar   45  PHE45      -0.0042
      8  CD2      -13.3090   35.8750   36.1540 C.ar   45  PHE45      -0.0042
      9  CE1      -14.3610   34.5960   33.9420 C.ar   45  PHE45      -0.0003
     10  CE2      -12.4660   35.2510   35.2510 C.ar   45  PHE45      -0.0003
     11  CZ       -12.9890   34.6120   34.1420 C.ar   45  PHE45      -0.0000
     12  N        -18.8630   32.9350   40.5530 N.3    48  LEU48      -0.1231
     13  CA       -17.8700   31.8550   40.7640 C.3    48  LEU48       0.1693
     14  C        -17.0120   32.0700   41.9750 C.2    48  LEU48       0.2591
     15  O        -16.7990   31.1700   42.7510 O.2    48  LEU48      -0.2718
     16  CB       -16.9290   31.7040   39.5590 C.3    48  LEU48       0.0284
     17  CG       -17.6210   31.1270   38.3310 C.3    48  LEU48       0.0019
     18  CD1      -16.7960   31.3030   37.0430 C.3    48  LEU48       0.0001
     19  CD2      -17.9510   29.6510   38.5890 C.3    48  LEU48       0.0001
     20  N        -16.5090   33.2770   42.1430 N.am   49  ALA49      -0.1980
     21  CA       -15.6860   33.6140   43.2890 C.3    49  ALA49       0.1597
     22  C        -16.4290   33.4110   44.6270 C.2    49  ALA49       0.2287
     23  O        -15.8480   32.9570   45.6160 O.2    49  ALA49      -0.2864
     24  CB       -15.2260   35.0350   43.1610 C.3    49  ALA49       0.0319
     25  N        -16.5940   29.8700   45.4440 N.3    52  SER52      -0.1217
     26  CA       -15.3030   29.3700   45.9800 C.3    52  SER52       0.1889
     27  C        -15.0620   29.8540   47.3760 C.2    52  SER52       0.2288
     28  O        -14.5420   29.1270   48.1960 O.2    52  SER52      -0.2866
     29  CB       -14.0670   29.7790   45.1360 C.3    52  SER52       0.2089
     30  OG       -14.2060   29.3590   43.8000 O.3    52  SER52      -0.2183
     31  N         -7.7330   30.6310   46.9070 N.3    86  MET86      -0.1245
     32  CA        -8.2920   30.6340   45.5740 C.3    86  MET86       0.1570
     33  C         -7.2500   30.4970   44.4780 C.2    86  MET86       0.2261
     34  O         -7.5170   29.8820   43.4190 O.2    86  MET86      -0.2867
     35  CB        -9.0740   31.8930   45.3290 C.3    86  MET86       0.0387
     36  CG       -10.4510   31.9090   46.0250 C.3    86  MET86       0.0595
     37  SD       -11.2190   33.6000   46.0210 S.3    86  MET86      -0.1393
     38  CE       -12.6160   33.3170   45.1500 C.3    86  MET86       0.0692
     39  N         -7.1360   27.3820   41.9530 N.3    90  THR90      -0.1218
     40  CA        -7.0620   27.6780   40.5380 C.3    90  THR90       0.1862
     41  C         -5.9040   26.9080   39.8970 C.2    90  THR90       0.2287
     42  O         -6.0260   26.3810   38.7810 O.2    90  THR90      -0.2866
     43  CB        -6.8520   29.1820   40.3250 C.3    90  THR90       0.1770
     44  OG1       -8.0130   29.9020   40.7440 O.3    90  THR90      -0.2211
     45  CG2       -6.6910   29.5310   38.8100 C.3    90  THR90       0.0375
     46  N         -6.9950   23.3370   39.6960 N.3    93  ARG93      -0.1245
     47  CA        -7.9570   23.2030   38.5930 C.3    93  ARG93       0.1563
     48  C         -7.3500   23.5080   37.2250 C.2    93  ARG93       0.2260
     49  O         -8.0520   23.5150   36.2180 O.2    93  ARG93      -0.2867
     50  CB        -9.1700   24.1260   38.8210 C.3    93  ARG93       0.0307
     51  CG       -10.0720   23.7120   39.9730 C.3    93  ARG93       0.0489
     52  CD       -11.2240   24.6700   40.1980 C.3    93  ARG93       0.2205
     53  NE       -11.9760   24.3810   41.4280 N.pl3  93  ARG93      -0.0865
     54  CZ       -12.2000   25.2440   42.4300 C.cat  93  ARG93       0.5346
     55  NH1      -11.7280   26.4950   42.4150 N.pl3  93  ARG93       0.1354
     56  NH2      -12.8970   24.8450   43.4810 N.pl3  93  ARG93       0.1354
     57  N         -8.9660   26.7220   33.2880 N.3   101  ILE101     -0.1245
     58  CA        -9.2450   26.4000   34.6810 C.3   101  ILE101      0.1561
     59  C        -10.6270   25.7390   34.7980 C.2   101  ILE101      0.2260
     60  O        -11.6330   26.3920   34.5720 O.2   101  ILE101     -0.2867
     61  CB        -9.1680   27.7070   35.5240 C.3   101  ILE101      0.0252
     62  CG1       -7.7570   28.3310   35.4300 C.3   101  ILE101      0.0019
     63  CG2       -9.5600   27.4430   36.9750 C.3   101  ILE101      0.0019
     64  CD1       -7.7360   29.8460   35.5320 C.3   101  ILE101      0.0001
     65  N        -13.6780   24.0560   36.7760 N.3   103  PHE103     -0.1241
     66  CA       -14.4470   23.9090   38.0150 C.3   103  PHE103      0.1605
     67  C        -15.2210   22.5890   38.0530 C.2   103  PHE103      0.2264
     68  O        -15.1920   21.8590   39.0540 O.2   103  PHE103     -0.2867
     69  CB       -15.4270   25.0560   38.1370 C.3   103  PHE103      0.0534
     70  CG       -14.8140   26.3040   38.6570 C.ar  103  PHE103     -0.0203
     71  CD1      -14.4450   27.3200   37.7970 C.ar  103  PHE103     -0.0042
     72  CD2      -14.6070   26.4610   40.0210 C.ar  103  PHE103     -0.0042
     73  CE1      -13.8850   28.4810   38.2930 C.ar  103  PHE103     -0.0003
     74  CE2      -14.0440   27.6100   40.5220 C.ar  103  PHE103     -0.0003
     75  CZ       -13.6820   28.6200   39.6620 C.ar  103  PHE103     -0.0000
     76  N        -12.2130   28.1900   31.7530 N.3   109  TYR109     -0.1241
     77  CA       -11.8860   29.6010   31.5590 C.3   109  TYR109      0.1605
     78  C        -10.4360   29.7710   31.1320 C.2   109  TYR109      0.2264
     79  O         -9.5240   29.2580   31.7830 O.2   109  TYR109     -0.2867
     80  CB       -12.1850   30.3850   32.8570 C.3   109  TYR109      0.0534
     81  CG       -13.6430   30.2610   33.2490 C.ar  109  TYR109     -0.0201
     82  CD1      -14.0720   29.2520   34.1060 C.ar  109  TYR109     -0.0009
     83  CD2      -14.6010   31.1020   32.6910 C.ar  109  TYR109     -0.0009
     84  CE1      -15.4160   29.1100   34.4270 C.ar  109  TYR109      0.0417
     85  CE2      -15.9370   30.9700   33.0050 C.ar  109  TYR109      0.0417
     86  CZ       -16.3460   29.9740   33.8700 C.ar  109  TYR109      0.1957
     87  OH       -17.6910   29.8410   34.1770 O.3   109  TYR109     -0.2866
     88  N        -10.8820   35.6910   30.7950 N.3   114  PHE114     -0.1241
     89  CA       -10.5900   36.5970   31.9180 C.3   114  PHE114      0.1605
     90  C        -10.6060   38.0710   31.4830 C.2   114  PHE114      0.2264
     91  O        -11.1400   38.9280   32.1830 O.2   114  PHE114     -0.2867
     92  CB        -9.2160   36.2990   32.5310 C.3   114  PHE114      0.0534
     93  CG        -9.2000   35.1940   33.5730 C.ar  114  PHE114     -0.0203
     94  CD1       -9.4930   33.8820   33.2310 C.ar  114  PHE114     -0.0042
     95  CD2       -8.8040   35.4640   34.8780 C.ar  114  PHE114     -0.0042
     96  CE1       -9.4370   32.8620   34.1660 C.ar  114  PHE114     -0.0003
     97  CE2       -8.7420   34.4460   35.8350 C.ar  114  PHE114     -0.0003
     98  CZ        -9.0620   33.1400   35.4720 C.ar  114  PHE114     -0.0000
@<TRIPOS>BOND
     1    88    89    1
     2    78    77    1
     3    78    79    2
     4    90    89    1
     5    90    91    2
     6    77    76    1
     7    77    80    1
     8    89    92    1
     9    92    93    1
    10    83    85   ar
    11    83    81   ar
    12    80    81    1
    13    85    86   ar
    14    94    93   ar
    15    94    96   ar
    16    81    82   ar
    17    57    58    1
    18    93    95   ar
    19    86    87    1
    20    86    84   ar
    21     9    11   ar
    22     9     7   ar
    23    82    84   ar
    24    11    10   ar
    25    96    98   ar
    26    60    59    2
    27    58    59    1
    28    58    61    1
    29     7     6   ar
    30    95    97   ar
    31    10     8   ar
    32    62    61    1
    33    62    64    1
    34    98    97   ar
    35    61    63    1
    36     6     8   ar
    37     6     5    1
    38    49    48    2
    39     1     2    1
    40    65    66    1
    41     5     2    1
    42    18    17    1
    43    48    47    1
    44     2     3    1
    45    71    73   ar
    46    71    70   ar
    47    66    67    1
    48    66    69    1
    49    67    68    2
    50    69    70    1
    51    73    75   ar
    52    17    19    1
    53    17    16    1
    54    47    50    1
    55    47    46    1
    56    70    72   ar
    57    42    41    2
    58    45    43    1
    59    50    51    1
    60     3     4    2
    61    16    13    1
    62    75    74   ar
    63    41    40    1
    64    51    52    1
    65    72    74   ar
    66    52    53    1
    67    43    40    1
    68    43    44    1
    69    40    39    1
    70    12    13    1
    71    13    14    1
    72    53    54    2
    73    14    20   am
    74    14    15    2
    75    20    21    1
    76    55    54    1
    77    54    56    1
    78    24    21    1
    79    21    22    1
    80    34    33    2
    81    30    29    1
    82    33    32    1
    83    22    23    2
    84    29    26    1
    85    38    37    1
    86    35    32    1
    87    35    36    1
    88    25    26    1
    89    32    31    1
    90    26    27    1
    91    37    36    1
    92    27    28    2
