@<TRIPOS>MOLECULE
tmp/1pqcA00.pdb
 223 211 0 0 0
SMALL
GASTEIGER

@<TRIPOS>ATOM
      1  N        -18.3870   39.4960   33.8310 N.3    42  PHE42      -0.1241
      2  CA       -17.8480   39.9070   35.1170 C.3    42  PHE42       0.1605
      3  C        -18.6860   39.3100   36.2360 C.2    42  PHE42       0.2264
      4  O        -18.1590   38.6880   37.1510 O.2    42  PHE42      -0.2867
      5  CB       -17.8610   41.4320   35.2250 C.3    42  PHE42       0.0534
      6  CG       -17.3850   41.9500   36.5460 C.ar   42  PHE42      -0.0203
      7  CD1      -16.0990   41.6920   36.9770 C.ar   42  PHE42      -0.0042
      8  CD2      -18.2260   42.7000   37.3610 C.ar   42  PHE42      -0.0042
      9  CE1      -15.6560   42.1740   38.2080 C.ar   42  PHE42      -0.0003
     10  CE2      -17.7940   43.1730   38.5940 C.ar   42  PHE42      -0.0003
     11  CZ       -16.5070   42.9160   39.0160 C.ar   42  PHE42      -0.0000
     12  N        -18.1150   35.9070   36.6920 N.3    45  PHE45      -0.1227
     13  CA       -16.8400   35.6750   37.4090 C.3    45  PHE45       0.1736
     14  C        -17.0030   35.8450   38.8820 C.2    45  PHE45       0.2596
     15  O        -16.5270   35.0520   39.6640 O.2    45  PHE45      -0.2718
     16  CB       -15.7280   36.5860   36.9030 C.3    45  PHE45       0.0547
     17  CG       -14.8440   35.9230   35.9080 C.ar   45  PHE45      -0.0202
     18  CD1      -15.3870   35.1820   34.8710 C.ar   45  PHE45      -0.0042
     19  CD2      -13.4730   36.0150   36.0050 C.ar   45  PHE45      -0.0042
     20  CE1      -14.5750   34.5510   33.9440 C.ar   45  PHE45      -0.0003
     21  CE2      -12.6550   35.3840   35.0690 C.ar   45  PHE45      -0.0003
     22  CZ       -13.2110   34.6460   34.0480 C.ar   45  PHE45      -0.0000
     23  N        -17.7320   36.8820   39.2290 N.am   46  THR46      -0.1953
     24  CA       -18.0290   37.2640   40.5880 C.3    46  THR46       0.1897
     25  C        -18.8600   36.2040   41.3570 C.2    46  THR46       0.2313
     26  O        -18.7630   36.0740   42.5790 O.2    46  THR46      -0.2863
     27  CB       -18.6970   38.6730   40.5110 C.3    46  THR46       0.1794
     28  OG1      -17.9810   39.5870   41.3460 O.3    46  THR46      -0.2208
     29  CG2      -20.1350   38.7170   40.9810 C.3    46  THR46       0.0378
     30  N        -18.9830   32.7680   40.4890 N.3    48  LEU48      -0.1231
     31  CA       -17.9930   31.7200   40.7350 C.3    48  LEU48       0.1693
     32  C        -17.0910   32.0610   41.9080 C.2    48  LEU48       0.2591
     33  O        -16.8550   31.2240   42.7470 O.2    48  LEU48      -0.2718
     34  CB       -17.1120   31.5230   39.5130 C.3    48  LEU48       0.0284
     35  CG       -17.8930   30.9590   38.3410 C.3    48  LEU48       0.0019
     36  CD1      -17.1410   31.0900   37.0030 C.3    48  LEU48       0.0001
     37  CD2      -18.2230   29.5190   38.6500 C.3    48  LEU48       0.0001
     38  N        -16.5730   33.2840   41.9790 N.am   49  ALA49      -0.1980
     39  CA       -15.7060   33.6680   43.1000 C.3    49  ALA49       0.1597
     40  C        -16.3860   33.4250   44.4670 C.2    49  ALA49       0.2287
     41  O        -15.7870   32.8800   45.3790 O.2    49  ALA49      -0.2864
     42  CB       -15.2730   35.1050   42.9430 C.3    49  ALA49       0.0319
     43  N        -16.5880   29.8090   45.4240 N.3    52  SER52      -0.1217
     44  CA       -15.2760   29.3280   45.9350 C.3    52  SER52       0.1889
     45  C        -15.0470   29.8190   47.3310 C.2    52  SER52       0.2288
     46  O        -14.5550   29.0880   48.1620 O.2    52  SER52      -0.2866
     47  CB       -14.0800   29.7580   45.0950 C.3    52  SER52       0.2089
     48  OG       -14.0330   29.0480   43.8760 O.3    52  SER52      -0.2183
     49  N         -8.2060   34.7590   49.0150 N.3    83  ILE83      -0.1245
     50  CA        -7.7150   34.9240   47.6460 C.3    83  ILE83       0.1561
     51  C         -6.5270   34.0040   47.3810 C.2    83  ILE83       0.2260
     52  O         -6.3540   33.5250   46.2490 O.2    83  ILE83      -0.2867
     53  CB        -7.3370   36.3930   47.3510 C.3    83  ILE83       0.0252
     54  CG1       -7.0440   36.6080   45.8550 C.3    83  ILE83       0.0019
     55  CG2       -6.1390   36.7930   48.1390 C.3    83  ILE83       0.0019
     56  CD1       -8.2540   36.3580   44.9240 C.3    83  ILE83       0.0001
     57  N         -7.6570   30.6510   46.7820 N.3    86  MET86      -0.1230
     58  CA        -8.3020   30.6480   45.4830 C.3    86  MET86       0.1702
     59  C         -7.2690   30.4790   44.3840 C.2    86  MET86       0.2592
     60  O         -7.5490   29.9280   43.3300 O.2    86  MET86      -0.2718
     61  CB        -9.0780   31.9510   45.2580 C.3    86  MET86       0.0401
     62  CG       -10.4650   31.9110   45.8820 C.3    86  MET86       0.0596
     63  SD       -11.3980   33.4890   46.0690 S.3    86  MET86      -0.1393
     64  CE       -12.4980   33.3690   44.7430 C.3    86  MET86       0.0692
     65  N         -6.0730   30.9830   44.6350 N.am   87  LEU87      -0.1980
     66  CA        -4.9980   30.9690   43.6680 C.3    87  LEU87       0.1596
     67  C         -4.3820   29.5800   43.6140 C.2    87  LEU87       0.2287
     68  O         -4.1020   29.0710   42.5570 O.2    87  LEU87      -0.2864
     69  CB        -3.9840   32.0360   44.0490 C.3    87  LEU87       0.0297
     70  CG        -4.3820   33.4510   43.6090 C.3    87  LEU87       0.0022
     71  CD1       -3.7260   34.5330   44.4260 C.3    87  LEU87       0.0001
     72  CD2       -3.9650   33.6560   42.1930 C.3    87  LEU87       0.0001
     73  N         -7.0820   27.4480   41.9550 N.3    90  THR90      -0.1218
     74  CA        -7.0900   27.6960   40.5260 C.3    90  THR90       0.1862
     75  C         -5.9490   26.9110   39.8810 C.2    90  THR90       0.2287
     76  O         -6.1060   26.2910   38.8270 O.2    90  THR90      -0.2866
     77  CB        -6.9220   29.2030   40.2770 C.3    90  THR90       0.1770
     78  OG1       -8.0930   29.8890   40.7100 O.3    90  THR90      -0.2211
     79  CG2       -6.8250   29.5570   38.7760 C.3    90  THR90       0.0375
     80  N         -6.9410   23.3750   39.5890 N.3    93  ARG93      -0.1245
     81  CA        -7.8870   23.2590   38.4650 C.3    93  ARG93       0.1563
     82  C         -7.2850   23.5980   37.0930 C.2    93  ARG93       0.2260
     83  O         -7.9760   23.5690   36.0760 O.2    93  ARG93      -0.2867
     84  CB        -9.1080   24.1590   38.7160 C.3    93  ARG93       0.0307
     85  CG        -9.9180   23.7620   39.9300 C.3    93  ARG93       0.0489
     86  CD       -11.0990   24.6650   40.1850 C.3    93  ARG93       0.2205
     87  NE       -11.8910   24.2430   41.3510 N.pl3  93  ARG93      -0.0865
     88  CZ       -12.2770   25.0460   42.3550 C.cat  93  ARG93       0.5346
     89  NH1      -11.9470   26.3390   42.3970 N.pl3  93  ARG93       0.1354
     90  NH2      -12.9850   24.5430   43.3530 N.pl3  93  ARG93       0.1354
     91  N         -8.9450   26.7710   33.3160 N.3   101  ILE101     -0.1245
     92  CA        -9.2360   26.4710   34.6970 C.3   101  ILE101      0.1561
     93  C        -10.6180   25.8240   34.7860 C.2   101  ILE101      0.2260
     94  O        -11.6160   26.4830   34.5520 O.2   101  ILE101     -0.2867
     95  CB        -9.1420   27.7810   35.5090 C.3   101  ILE101      0.0252
     96  CG1       -7.7420   28.4280   35.3120 C.3   101  ILE101      0.0019
     97  CG2       -9.4650   27.5280   37.0070 C.3   101  ILE101      0.0019
     98  CD1       -7.7330   29.9400   35.3260 C.3   101  ILE101      0.0001
     99  N        -13.5390   24.2500   36.7990 N.3   103  PHE103     -0.1241
    100  CA       -14.3930   23.9730   37.9630 C.3   103  PHE103      0.1605
    101  C        -15.1890   22.6530   37.9170 C.2   103  PHE103      0.2264
    102  O        -15.1870   21.8810   38.8840 O.2   103  PHE103     -0.2867
    103  CB       -15.3690   25.1060   38.1380 C.3   103  PHE103      0.0534
    104  CG       -14.7380   26.3380   38.6460 C.ar  103  PHE103     -0.0203
    105  CD1      -14.3090   27.3160   37.7740 C.ar  103  PHE103     -0.0042
    106  CD2      -14.5560   26.5170   40.0100 C.ar  103  PHE103     -0.0042
    107  CE1      -13.7260   28.4700   38.2560 C.ar  103  PHE103     -0.0003
    108  CE2      -13.9630   27.6670   40.5010 C.ar  103  PHE103     -0.0003
    109  CZ       -13.5450   28.6460   39.6290 C.ar  103  PHE103     -0.0000
    110  N        -12.2520   28.1430   31.7600 N.3   109  TYR109     -0.1241
    111  CA       -11.9450   29.5540   31.5040 C.3   109  TYR109      0.1605
    112  C        -10.4990   29.7460   31.0540 C.2   109  TYR109      0.2264
    113  O         -9.5570   29.3110   31.7310 O.2   109  TYR109     -0.2867
    114  CB       -12.2810   30.4170   32.7440 C.3   109  TYR109      0.0534
    115  CG       -13.7250   30.2530   33.1510 C.ar  109  TYR109     -0.0201
    116  CD1      -14.1110   29.2110   33.9880 C.ar  109  TYR109     -0.0009
    117  CD2      -14.7110   31.0820   32.6340 C.ar  109  TYR109     -0.0009
    118  CE1      -15.4370   29.0080   34.3190 C.ar  109  TYR109      0.0417
    119  CE2      -16.0470   30.8900   32.9640 C.ar  109  TYR109      0.0417
    120  CZ       -16.4040   29.8480   33.8130 C.ar  109  TYR109      0.1957
    121  OH       -17.7280   29.6400   34.1570 O.3   109  TYR109     -0.2866
    122  N        -11.0040   35.5780   30.8850 N.3   114  PHE114     -0.1241
    123  CA       -10.6850   36.5230   31.9700 C.3   114  PHE114      0.1605
    124  C        -10.7120   37.9680   31.4780 C.2   114  PHE114      0.2264
    125  O        -11.3390   38.8290   32.0780 O.2   114  PHE114     -0.2867
    126  CB        -9.2930   36.2510   32.5490 C.3   114  PHE114      0.0534
    127  CG        -9.2380   35.1380   33.5750 C.ar  114  PHE114     -0.0203
    128  CD1       -9.4860   33.8270   33.2140 C.ar  114  PHE114     -0.0042
    129  CD2       -8.8710   35.4070   34.8850 C.ar  114  PHE114     -0.0042
    130  CE1       -9.4120   32.8060   34.1230 C.ar  114  PHE114     -0.0003
    131  CE2       -8.7840   34.3820   35.8160 C.ar  114  PHE114     -0.0003
    132  CZ        -9.0650   33.0700   35.4290 C.ar  114  PHE114     -0.0000
    133  N        -11.1470   42.0410   33.4590 N.3   119  LEU119     -0.1245
    134  CA        -9.9190   41.8980   34.2150 C.3   119  LEU119      0.1561
    135  C         -8.6840   42.3710   33.4260 C.2   119  LEU119      0.2260
    136  O         -8.4720   42.0130   32.2630 O.2   119  LEU119     -0.2867
    137  CB        -9.7430   40.4440   34.6810 C.3   119  LEU119      0.0270
    138  CG       -10.8740   39.6850   35.4110 C.3   119  LEU119      0.0019
    139  CD1      -10.2790   38.6060   36.2750 C.3   119  LEU119      0.0001
    140  CD2      -11.7410   40.5590   36.2570 C.3   119  LEU119      0.0001
    141  N         -3.1590   41.4610   36.3230 N.3   123  PHE123     -0.1241
    142  CA        -3.6150   40.3390   37.1830 C.3   123  PHE123      0.1605
    143  C         -3.5990   38.9480   36.4830 C.2   123  PHE123      0.2264
    144  O         -3.1440   37.9550   37.0670 O.2   123  PHE123     -0.2867
    145  CB        -5.0450   40.6670   37.6590 C.3   123  PHE123      0.0534
    146  CG        -5.6140   39.7380   38.7090 C.ar  123  PHE123     -0.0203
    147  CD1       -4.8480   39.2530   39.7510 C.ar  123  PHE123     -0.0042
    148  CD2       -6.9630   39.4010   38.6720 C.ar  123  PHE123     -0.0042
    149  CE1       -5.4240   38.4130   40.7500 C.ar  123  PHE123     -0.0003
    150  CE2       -7.5450   38.5670   39.6480 C.ar  123  PHE123     -0.0003
    151  CZ        -6.7730   38.0750   40.6820 C.ar  123  PHE123     -0.0000
    152  N         -1.6220   35.1600   37.2810 N.3   127  ILE127     -0.1245
    153  CA        -2.5130   34.0320   37.6110 C.3   127  ILE127      0.1561
    154  C         -2.0700   32.7730   36.8620 C.2   127  ILE127      0.2260
    155  O         -1.9910   31.6850   37.4360 O.2   127  ILE127     -0.2867
    156  CB        -4.0270   34.3320   37.2780 C.3   127  ILE127      0.0252
    157  CG1       -4.6600   35.4070   38.1540 C.3   127  ILE127      0.0019
    158  CG2       -4.8520   33.1140   37.4710 C.3   127  ILE127      0.0019
    159  CD1       -3.8130   35.8480   39.3320 C.3   127  ILE127      0.0001
    160  N         -4.1150   41.2900   43.3230 N.3   209  HIS209     -0.1241
    161  CA        -5.5660   41.1250   43.3130 C.3   209  HIS209      0.1621
    162  C         -6.3080   42.3330   43.8930 C.2   209  HIS209      0.2264
    163  O         -7.3610   42.6760   43.3890 O.2   209  HIS209     -0.2867
    164  CB        -6.0130   39.8310   44.0100 C.3   209  HIS209      0.0745
    165  CG        -7.4910   39.7360   44.1510 C.ar  209  HIS209      0.0817
    166  ND1       -8.1380   40.0140   45.3280 N.ar  209  HIS209     -0.2268
    167  CD2       -8.4560   39.4780   43.2440 C.ar  209  HIS209      0.1154
    168  CE1       -9.4380   39.8960   45.1510 C.ar  209  HIS209      0.1986
    169  NE2       -9.6590   39.5740   43.8930 N.ar  209  HIS209     -0.2212
    170  N         -6.4950   44.9300   41.1920 N.3   212  GLN212     -0.1231
    171  CA        -7.5470   44.5920   40.2430 C.3   212  GLN212      0.1698
    172  C         -8.9010   45.0550   40.7480 C.2   212  GLN212      0.2592
    173  O         -9.6670   45.5890   39.9590 O.2   212  GLN212     -0.2718
    174  CB        -7.5830   43.0920   39.9660 C.3   212  GLN212      0.0381
    175  CG        -8.6880   42.6440   39.0300 C.3   212  GLN212      0.0905
    176  CD        -8.5300   43.2050   37.6480 C.2   212  GLN212      0.2608
    177  OE1       -7.9160   42.5730   36.7870 O.2   212  GLN212     -0.2717
    178  NE2       -9.0660   44.4030   37.4290 N.am  212  GLN212     -0.0878
    179  N         -9.1950   44.8760   42.0400 N.am  213  VAL213     -0.1980
    180  CA       -10.4820   45.3060   42.6050 C.3   213  VAL213      0.1595
    181  C        -10.6780   46.8510   42.5390 C.2   213  VAL213      0.2287
    182  O        -11.7390   47.3390   42.1380 O.2   213  VAL213     -0.2864
    183  CB       -10.6660   44.8010   44.0740 C.3   213  VAL213      0.0276
    184  CG1      -11.8910   45.4220   44.7270 C.3   213  VAL213      0.0022
    185  CG2      -10.7920   43.2770   44.1270 C.3   213  VAL213      0.0022
    186  N        -11.2340   48.0420   38.9960 N.3   216  LEU216     -0.1245
    187  CA       -12.5810   47.7570   38.5150 C.3   216  LEU216      0.1561
    188  C        -13.5140   48.8400   38.9830 C.2   216  LEU216      0.2260
    189  O        -14.3290   49.3170   38.2180 O.2   216  LEU216     -0.2867
    190  CB       -13.0850   46.4010   39.0400 C.3   216  LEU216      0.0270
    191  CG       -12.4100   45.1580   38.4440 C.3   216  LEU216      0.0019
    192  CD1      -12.6690   43.9530   39.3160 C.3   216  LEU216      0.0001
    193  CD2      -12.8690   44.8820   37.0280 C.3   216  LEU216      0.0001
    194  N        -17.6770   45.0970   43.5190 N.3   223  LEU223     -0.1245
    195  CA       -17.9460   43.7910   44.1050 C.3   223  LEU223      0.1561
    196  C        -19.3420   43.7120   44.7460 C.2   223  LEU223      0.2260
    197  O        -19.8050   44.6650   45.3830 O.2   223  LEU223     -0.2867
    198  CB       -16.9160   43.4680   45.1860 C.3   223  LEU223      0.0270
    199  CG       -15.4520   43.3160   44.7880 C.3   223  LEU223      0.0019
    200  CD1      -14.6140   42.9590   46.0120 C.3   223  LEU223      0.0001
    201  CD2      -15.2880   42.2710   43.7190 C.3   223  LEU223      0.0001
    202  N        -18.5140   39.3330   48.5710 N.3   227  LEU227     -0.1245
    203  CA       -17.1200   39.5670   48.2840 C.3   227  LEU227      0.1561
    204  C        -16.6530   40.9260   48.8270 C.2   227  LEU227      0.2260
    205  O        -15.4740   41.0900   49.1070 O.2   227  LEU227     -0.2867
    206  CB       -16.8740   39.4940   46.7710 C.3   227  LEU227      0.0270
    207  CG       -17.2340   38.2060   46.0360 C.3   227  LEU227      0.0019
    208  CD1      -16.8510   38.2950   44.5600 C.3   227  LEU227      0.0001
    209  CD2      -16.5650   37.0170   46.6790 C.3   227  LEU227      0.0001
    210  N        -12.9160   42.0590   50.6190 N.3   231  TRP231     -0.1241
    211  CA       -11.8680   42.6650   49.7900 C.3   231  TRP231      0.1605
    212  C        -11.8660   44.2070   49.5560 C.2   231  TRP231      0.2264
    213  O        -10.9290   44.7080   48.9340 O.2   231  TRP231     -0.2867
    214  CB       -11.8350   41.9590   48.4380 C.3   231  TRP231      0.0550
    215  CG       -11.4350   40.5310   48.4780 C.ar  231  TRP231      0.0003
    216  CD1      -10.5580   39.9530   49.3320 C.ar  231  TRP231      0.0946
    217  CD2      -11.8820   39.4860   47.6090 C.ar  231  TRP231      0.0152
    218  NE1      -10.4250   38.6130   49.0550 N.ar  231  TRP231     -0.2442
    219  CE2      -11.2300   38.3000   47.9990 C.ar  231  TRP231      0.0810
    220  CE3      -12.7660   39.4300   46.5340 C.ar  231  TRP231      0.0012
    221  CZ2      -11.4380   37.0790   47.3610 C.ar  231  TRP231      0.0191
    222  CZ3      -12.9730   38.2140   45.9060 C.ar  231  TRP231      0.0001
    223  CH2      -12.3050   37.0590   46.3150 C.ar  231  TRP231      0.0015
@<TRIPOS>BOND
     1   122   123    1
     2   112   111    1
     3   112   113    2
     4   124   123    1
     5   124   125    2
     6   111   110    1
     7   111   114    1
     8   123   126    1
     9   136   135    2
    10   126   127    1
    11   117   119   ar
    12   117   115   ar
    13   114   115    1
    14   119   120   ar
    15   115   116   ar
    16   128   127   ar
    17   128   130   ar
    18    91    92    1
    19   135   134    1
    20   133   134    1
    21   127   129   ar
    22   120   121    1
    23   120   118   ar
    24     1     2    1
    25    20    22   ar
    26    20    18   ar
    27   116   118   ar
    28    22    21   ar
    29   130   132   ar
    30   134   137    1
    31    94    93    2
    32   137   138    1
    33    92    93    1
    34    92    95    1
    35    18    17   ar
    36   129   131   ar
    37    21    19   ar
    38     2     5    1
    39     2     3    1
    40     5     6    1
    41    96    98    1
    42    96    95    1
    43   138   140    1
    44   138   139    1
    45   132   131   ar
    46    95    97    1
    47    17    19   ar
    48    17    16    1
    49    83    82    2
    50     3     4    2
    51   141   142    1
    52   143   144    2
    53   143   142    1
    54     6     7   ar
    55     6     8   ar
    56    12    13    1
    57   177   176    2
    58    99   100    1
    59   154   155    2
    60   154   153    1
    61    16    13    1
    62     7     9   ar
    63    36    35    1
    64   193   191    1
    65    82    81    1
    66   142   145    1
    67   156   158    1
    68   156   153    1
    69   156   157    1
    70   152   153    1
    71     8    10   ar
    72    13    14    1
    73   178   176   am
    74   176   175    1
    75   145   146    1
    76   105   107   ar
    77   105   104   ar
    78   101   100    1
    79   101   102    2
    80   100   103    1
    81   103   104    1
    82   157   159    1
    83     9    11   ar
    84   189   188    2
    85   107   109   ar
    86    35    37    1
    87    35    34    1
    88   191   190    1
    89   191   192    1
    90    81    84    1
    91    81    80    1
    92   187   188    1
    93   187   186    1
    94   187   190    1
    95    10    11   ar
    96   104   106   ar
    97   148   146   ar
    98   148   150   ar
    99   146   147   ar
   100    84    85    1
   101    79    77    1
   102    76    75    2
   103    14    23   am
   104    14    15    2
   105   175   174    1
   106    23    24    1
   107    34    31    1
   108   109   108   ar
   109   150   151   ar
   110   147   149   ar
   111    75    74    1
   112    85    86    1
   113   173   172    2
   114   174   171    1
   115   106   108   ar
   116    86    87    1
   117   171   172    1
   118   171   170    1
   119    77    74    1
   120    77    78    1
   121    30    31    1
   122    27    24    1
   123    27    29    1
   124    27    28    1
   125    74    73    1
   126    24    25    1
   127   151   149   ar
   128    31    32    1
   129   172   179   am
   130    87    88    2
   131    25    26    2
   132    32    38   am
   133    32    33    2
   134    38    39    1
   135   179   180    1
   136   182   181    2
   137    72    70    1
   138    88    89    1
   139    88    90    1
   140   181   180    1
   141    68    67    2
   142   180   183    1
   143    42    39    1
   144    39    40    1
   145   167   169   ar
   146   167   165   ar
   147   161   160    1
   148   161   162    1
   149   161   164    1
   150    60    59    2
   151   163   162    2
   152   194   195    1
   153    70    69    1
   154    70    71    1
   155    67    66    1
   156    66    69    1
   157    66    65    1
   158   201   199    1
   159    48    47    1
   160   169   168   ar
   161   164   165    1
   162   183   185    1
   163   183   184    1
   164   195   196    1
   165   195   198    1
   166   165   166   ar
   167    59    65   am
   168    59    58    1
   169    40    41    2
   170   208   207    1
   171    64    63    1
   172   196   197    2
   173   199   198    1
   174   199   200    1
   175    56    54    1
   176    47    44    1
   177   168   166   ar
   178    61    58    1
   179    61    62    1
   180    43    44    1
   181    58    57    1
   182    54    53    1
   183    62    63    1
   184   222   223   ar
   185   222   220   ar
   186    44    45    1
   187   207   209    1
   188   207   206    1
   189    52    51    2
   190   223   221   ar
   191   220   217   ar
   192   206   203    1
   193    45    46    2
   194    53    50    1
   195    53    55    1
   196   221   219   ar
   197    51    50    1
   198   217   219   ar
   199   217   215   ar
   200    50    49    1
   201   219   218   ar
   202   203   202    1
   203   203   204    1
   204   214   215    1
   205   214   211    1
   206   215   216   ar
   207   204   205    2
   208   213   212    2
   209   218   216   ar
   210   212   211    1
   211   211   210    1
