@<TRIPOS>MOLECULE
tmp/1pqpA00.pdb
 87 80 0 0 0
SMALL
GASTEIGER

@<TRIPOS>ATOM
      1  N        -37.6990   25.6560  -17.5470 N.3   121  ASN121     -0.1225
      2  CA       -38.8530   26.2700  -16.9060 C.3   121  ASN121      0.1785
      3  C        -39.7430   25.1390  -16.4080 C.2   121  ASN121      0.2598
      4  O        -39.9790   24.1640  -17.1280 O.2   121  ASN121     -0.2718
      5  CB       -39.5800   27.1420  -17.9390 C.3   121  ASN121      0.1169
      6  CG       -40.9670   27.5530  -17.5020 C.2   121  ASN121      0.2627
      7  OD1      -41.9570   27.0720  -18.0380 O.2   121  ASN121     -0.2716
      8  ND2      -41.0450   28.4520  -16.5300 N.am  121  ASN121     -0.0877
      9  N        -40.2280   25.2550  -15.1740 N.am  122  SER122     -0.1938
     10  CA       -41.0700   24.2020  -14.5960 C.3   122  SER122      0.2055
     11  C        -42.3120   23.8810  -15.4240 C.2   122  SER122      0.2643
     12  O        -42.5840   22.7200  -15.7300 O.2   122  SER122     -0.2714
     13  CB       -41.5020   24.5860  -13.1750 C.3   122  SER122      0.2130
     14  OG       -40.3810   24.7330  -12.3210 O.3   122  SER122     -0.2179
     15  N        -43.0730   24.9150  -15.7700 N.am  123  THR123     -0.1950
     16  CA       -44.2860   24.7390  -16.5560 C.3   123  THR123      0.1897
     17  C        -44.0070   24.0360  -17.8870 C.2   123  THR123      0.2313
     18  O        -44.6810   23.0690  -18.2410 O.2   123  THR123     -0.2863
     19  CB       -44.9570   26.1070  -16.8120 C.3   123  THR123      0.1794
     20  OG1      -45.3490   26.6790  -15.5560 O.3   123  THR123     -0.2208
     21  CG2      -46.1870   25.9510  -17.6920 C.3   123  THR123      0.0378
     22  N        -50.7090   27.3170  -11.4360 N.3   149  GLN149     -0.1245
     23  CA       -49.4100   27.1690  -10.8000 C.3   149  GLN149      0.1566
     24  C        -49.3420   27.2860   -9.2800 C.2   149  GLN149      0.2260
     25  O        -50.0240   28.1090   -8.6600 O.2   149  GLN149     -0.2867
     26  CB       -48.4310   28.1330  -11.4820 C.3   149  GLN149      0.0367
     27  CG       -48.3020   27.8160  -12.9900 C.3   149  GLN149      0.0905
     28  CD       -47.3420   28.7160  -13.7400 C.2   149  GLN149      0.2608
     29  OE1      -47.6320   29.1570  -14.8570 O.2   149  GLN149     -0.2717
     30  NE2      -46.1910   28.9810  -13.1470 N.am  149  GLN149     -0.0878
     31  N        -44.8630   26.9890   -4.6730 N.3   152  SER152     -0.1202
     32  CA       -43.4730   26.5530   -4.6300 C.3   152  SER152      0.2020
     33  C        -42.6320   27.2000   -5.7270 C.2   152  SER152      0.2619
     34  O        -41.4490   27.4590   -5.5340 O.2   152  SER152     -0.2717
     35  CB       -43.3780   25.0200   -4.7490 C.3   152  SER152      0.2103
     36  OG       -43.8670   24.5570   -6.0010 O.3   152  SER152     -0.2182
     37  N        -43.2470   27.4660   -6.8720 N.am  153  GLY153     -0.1956
     38  CA       -42.5150   28.0780   -7.9630 C.3   153  GLY153      0.1869
     39  C        -42.0350   29.4680   -7.6080 C.2   153  GLY153      0.2309
     40  O        -41.0360   29.9470   -8.1510 O.2   153  GLY153     -0.2863
     41  N        -47.6980   36.0870  -13.4540 N.3   217  ILE217     -0.1245
     42  CA       -46.4790   35.5170  -12.8920 C.3   217  ILE217      0.1561
     43  C        -45.2390   36.0920  -13.5840 C.2   217  ILE217      0.2260
     44  O        -45.1010   36.0070  -14.8060 O.2   217  ILE217     -0.2867
     45  CB       -46.4700   33.9840  -13.0350 C.3   217  ILE217      0.0252
     46  CG1      -47.6340   33.3850  -12.2290 C.3   217  ILE217      0.0019
     47  CG2      -45.1310   33.4340  -12.5700 C.3   217  ILE217      0.0019
     48  CD1      -47.8000   31.8640  -12.3730 C.3   217  ILE217      0.0001
     49  N        -42.9790   34.4740  -17.6200 N.3   229  GLU229     -0.1245
     50  CA       -43.3890   33.0910  -17.4190 C.3   229  GLU229      0.1567
     51  C        -44.0870   32.5700  -18.6720 C.2   229  GLU229      0.2260
     52  O        -43.8160   31.4630  -19.1330 O.2   229  GLU229     -0.2867
     53  CB       -44.3330   32.9940  -16.2180 C.3   229  GLU229      0.0388
     54  CG       -44.8320   31.5870  -15.9280 C.3   229  GLU229      0.1160
     55  CD       -43.7440   30.6720  -15.3960 C.2   229  GLU229      0.3649
     56  OE1      -42.6340   31.1600  -15.1070 O.co2 229  GLU229     -0.2457
     57  OE2      -44.0060   29.4640  -15.2580 O.co2 229  GLU229     -0.2457
     58  N        -51.4960   31.8830  -10.9420 N.3   256  ARG256     -0.1245
     59  CA       -51.1300   31.3070   -9.6540 C.3   256  ARG256      0.1563
     60  C        -52.4090   30.9510   -8.8870 C.2   256  ARG256      0.2260
     61  O        -53.3550   31.7360   -8.8570 O.2   256  ARG256     -0.2867
     62  CB       -50.3090   32.3270   -8.8480 C.3   256  ARG256      0.0307
     63  CG       -49.7320   31.8000   -7.5360 C.3   256  ARG256      0.0489
     64  CD       -48.4150   31.0880   -7.7580 C.3   256  ARG256      0.2205
     65  NE       -47.3820   32.0060   -8.2250 N.pl3 256  ARG256     -0.0865
     66  CZ       -46.2360   31.6210   -8.7750 C.cat 256  ARG256      0.5346
     67  NH1      -45.9710   30.3320   -8.9320 N.pl3 256  ARG256      0.1354
     68  NH2      -45.3570   32.5240   -9.1740 N.pl3 256  ARG256      0.1354
     69  N        -47.8680   22.0160  -10.2840 N.3   263  HIS263     -0.1241
     70  CA       -48.3890   22.8990  -11.3250 C.3   263  HIS263      0.1621
     71  C        -49.3460   22.0510  -12.1510 C.2   263  HIS263      0.2264
     72  O        -49.0680   20.8770  -12.4090 O.2   263  HIS263     -0.2867
     73  CB       -47.2890   23.3940  -12.2560 C.3   263  HIS263      0.0745
     74  CG       -46.4410   24.4780  -11.6790 C.ar  263  HIS263      0.0817
     75  ND1      -46.7580   25.1290  -10.5090 N.ar  263  HIS263     -0.2268
     76  CD2      -45.3040   25.0540  -12.1370 C.ar  263  HIS263      0.1154
     77  CE1      -45.8540   26.0620  -10.2690 C.ar  263  HIS263      0.1986
     78  NE2      -44.9610   26.0360  -11.2420 N.ar  263  HIS263     -0.2212
     79  N        -43.8590   20.4820   -9.2530 N.3   339  GLN339     -0.1245
     80  CA       -42.9490   21.5460   -9.6740 C.3   339  GLN339      0.1566
     81  C        -41.5000   21.4110   -9.2180 C.2   339  GLN339      0.2260
     82  O        -40.5780   21.8080   -9.9280 O.2   339  GLN339     -0.2867
     83  CB       -43.4910   22.9090   -9.2120 C.3   339  GLN339      0.0367
     84  CG       -42.7130   24.1030   -9.7710 C.3   339  GLN339      0.0905
     85  CD       -41.5720   24.5780   -8.8710 C.2   339  GLN339      0.2608
     86  OE1      -40.5610   25.0970   -9.3580 O.2   339  GLN339     -0.2717
     87  NE2      -41.7380   24.4260   -7.5610 N.am  339  GLN339     -0.0878
@<TRIPOS>BOND
     1    52    51    2
     2    51    50    1
     3    18    17    2
     4     7     6    2
     5     5     6    1
     6     5     2    1
     7    17    16    1
     8    21    19    1
     9    49    50    1
    10     1     2    1
    11     6     8   am
    12    50    53    1
    13     4     3    2
    14     2     3    1
    15    19    16    1
    16    19    20    1
    17    16    15    1
    18     3     9   am
    19    53    54    1
    20    54    55    1
    21    15    11   am
    22    12    11    2
    23    11    10    1
    24    55    57   ar
    25    55    56   ar
    26     9    10    1
    27    29    28    2
    28    44    43    2
    29    10    13    1
    30    28    30   am
    31    28    27    1
    32    43    42    1
    33    41    42    1
    34    13    14    1
    35    45    42    1
    36    45    47    1
    37    45    46    1
    38    27    26    1
    39    72    71    2
    40    48    46    1
    41    73    74    1
    42    73    70    1
    43    71    70    1
    44    76    74   ar
    45    76    78   ar
    46    74    75   ar
    47    26    23    1
    48    22    23    1
    49    70    69    1
    50    78    77   ar
    51    58    59    1
    52    23    24    1
    53    75    77   ar
    54    82    81    2
    55    84    83    1
    56    84    85    1
    57    80    79    1
    58    80    81    1
    59    80    83    1
    60    59    60    1
    61    59    62    1
    62    86    85    2
    63    24    25    2
    64    68    66    1
    65    67    66    1
    66    60    61    2
    67    85    87   am
    68    62    63    1
    69    66    65    2
    70    65    64    1
    71    40    39    2
    72    38    39    1
    73    38    37    1
    74    64    63    1
    75    37    33   am
    76    36    35    1
    77    33    34    2
    78    33    32    1
    79    35    32    1
    80    31    32    1
