@<TRIPOS>MOLECULE
tmp/1pquD01.pdb
 86 77 0 0 0
SMALL
GASTEIGER

@<TRIPOS>ATOM
      1  N        -19.5580  179.7310  -23.6420 N.3   135  ASN135     -0.1225
      2  CA       -18.8080  180.0870  -22.4380 C.3   135  ASN135      0.1785
      3  C        -19.6860  179.7510  -21.2280 C.2   135  ASN135      0.2597
      4  O        -20.8830  180.0350  -21.2140 O.2   135  ASN135     -0.2718
      5  CB       -18.4580  181.5760  -22.4480 C.3   135  ASN135      0.1169
      6  CG       -18.0040  182.0740  -21.0950 C.2   135  ASN135      0.2627
      7  OD1      -18.7070  182.8460  -20.4430 O.2   135  ASN135     -0.2716
      8  ND2      -16.8320  181.6310  -20.6580 N.am  135  ASN135     -0.0877
      9  N        -19.0890  179.1520  -20.2100 N.am  136  CYS136     -0.1970
     10  CA       -19.8570  178.7380  -19.0550 C.3   136  CYS136      0.1712
     11  C        -20.6520  179.8580  -18.3760 C.2   136  CYS136      0.2296
     12  O        -21.8090  179.6640  -17.9980 O.2   136  CYS136     -0.2864
     13  CB       -18.9280  178.0380  -18.0610 C.3   136  CYS136      0.0983
     14  SG       -18.0720  179.1250  -16.8880 S.3   136  CYS136     -0.0798
     15  N        -16.5540  183.8740  -10.0400 N.3   163  GLN163     -0.1245
     16  CA       -16.2090  182.5890  -10.6450 C.3   163  GLN163      0.1566
     17  C        -15.3400  181.6170   -9.8440 C.2   163  GLN163      0.2260
     18  O        -14.3490  182.0010   -9.2290 O.2   163  GLN163     -0.2867
     19  CB       -15.5950  182.8570  -12.0180 C.3   163  GLN163      0.0367
     20  CG       -16.5660  183.5940  -12.9280 C.3   163  GLN163      0.0905
     21  CD       -15.9880  183.9220  -14.2890 C.2   163  GLN163      0.2608
     22  OE1      -15.4400  183.0500  -14.9710 O.2   163  GLN163     -0.2717
     23  NE2      -16.1240  185.1780  -14.7020 N.am  163  GLN163     -0.0878
     24  N        -13.3700  176.4800  -12.8520 N.3   167  GLY167     -0.1210
     25  CA       -13.4670  177.0020  -14.2050 C.3   167  GLY167      0.1956
     26  C        -12.1240  177.1990  -14.8750 C.2   167  GLY167      0.2611
     27  O        -12.0440  177.2700  -16.1010 O.2   167  GLY167     -0.2717
     28  N        -11.0700  177.2830  -14.0660 N.am  168  ALA168     -0.1979
     29  CA        -9.7110  177.4690  -14.5690 C.3   168  ALA168      0.1597
     30  C         -8.9840  176.1290  -14.7850 C.2   168  ALA168      0.2287
     31  O         -7.9380  176.0690  -15.4380 O.2   168  ALA168     -0.2864
     32  CB        -8.9250  178.3520  -13.5980 C.3   168  ALA168      0.0319
     33  N         -9.6050  187.6510  -15.4690 N.3   231  ILE231     -0.1245
     34  CA        -9.6190  186.2800  -15.9840 C.3   231  ILE231      0.1561
     35  C         -9.3180  186.2900  -17.4830 C.2   231  ILE231      0.2260
     36  O         -9.9590  187.0180  -18.2530 O.2   231  ILE231     -0.2867
     37  CB       -10.9910  185.5970  -15.7530 C.3   231  ILE231      0.0252
     38  CG1      -11.3200  185.5760  -14.2590 C.3   231  ILE231      0.0019
     39  CG2      -10.9720  184.1680  -16.3010 C.3   231  ILE231      0.0019
     40  CD1      -12.6570  184.9180  -13.9200 C.3   231  ILE231      0.0001
     41  N        -12.5090  186.8920  -21.0810 N.3   243  GLU243     -0.1245
     42  CA       -13.6650  186.3320  -20.3870 C.3   243  GLU243      0.1567
     43  C        -14.8210  187.3390  -20.4030 C.2   243  GLU243      0.2260
     44  O        -15.9860  186.9690  -20.5770 O.2   243  GLU243     -0.2867
     45  CB       -13.2760  185.9890  -18.9390 C.3   243  GLU243      0.0388
     46  CG       -14.3330  185.2390  -18.1150 C.3   243  GLU243      0.1160
     47  CD       -14.4990  183.7820  -18.5350 C.2   243  GLU243      0.3649
     48  OE1      -13.5550  183.2300  -19.1380 O.co2 243  GLU243     -0.2457
     49  OE2      -15.5660  183.1850  -18.2490 O.co2 243  GLU243     -0.2457
     50  N        -16.4880  187.7740  -23.9340 N.3   246  LYS246     -0.1245
     51  CA       -17.4150  186.7010  -24.3000 C.3   246  LYS246      0.1561
     52  C        -18.8770  187.0130  -24.0140 C.2   246  LYS246      0.2260
     53  O        -19.7710  186.4810  -24.6740 O.2   246  LYS246     -0.2867
     54  CB       -17.0080  185.3980  -23.6040 C.3   246  LYS246      0.0271
     55  CG       -15.7680  184.7810  -24.2300 C.3   246  LYS246      0.0035
     56  CD       -15.2250  183.6020  -23.4520 C.3   246  LYS246      0.0206
     57  CE       -13.9970  183.0500  -24.1570 C.3   246  LYS246      0.1093
     58  NZ       -13.3730  181.9310  -23.4100 N.3   246  LYS246     -0.1314
     59  N        -12.4740  186.1120  -10.1140 N.3   270  ARG270     -0.1245
     60  CA       -12.2640  184.7610   -9.6200 C.3   270  ARG270      0.1563
     61  C        -12.2620  184.8350   -8.0970 C.2   270  ARG270      0.2260
     62  O        -11.5920  185.6970   -7.5170 O.2   270  ARG270     -0.2867
     63  CB       -10.9190  184.2330  -10.1090 C.3   270  ARG270      0.0307
     64  CG       -10.5450  182.8570   -9.6050 C.3   270  ARG270      0.0489
     65  CD       -10.2250  181.9690  -10.7810 C.3   270  ARG270      0.2205
     66  NE       -11.4540  181.4930  -11.3930 N.pl3 270  ARG270     -0.0865
     67  CZ       -11.6310  181.2940  -12.6940 C.cat 270  ARG270      0.5346
     68  NH1      -10.6600  181.5360  -13.5600 N.pl3 270  ARG270      0.1354
     69  NH2      -12.7880  180.8210  -13.1200 N.pl3 270  ARG270      0.1354
     70  N        -20.2310  179.0100  -10.6270 N.3   277  ASN277     -0.1240
     71  CA       -20.0290  180.4080  -10.9810 C.3   277  ASN277      0.1653
     72  C        -21.3040  181.1470  -10.6090 C.2   277  ASN277      0.2266
     73  O        -22.4050  180.6810  -10.9100 O.2   277  ASN277     -0.2867
     74  CB       -19.7500  180.5580  -12.4820 C.3   277  ASN277      0.1155
     75  CG       -18.3110  180.2010  -12.8520 C.2   277  ASN277      0.2627
     76  OD1      -17.6070  179.5430  -12.0880 O.2   277  ASN277     -0.2716
     77  ND2      -17.8780  180.6270  -14.0380 N.am  277  ASN277     -0.0877
     78  N        -20.7450  175.2430  -13.1430 N.3   353  GLN353     -0.1245
     79  CA       -20.0580  175.4900  -14.4070 C.3   353  GLN353      0.1566
     80  C        -19.6830  174.2660  -15.2350 C.2   353  GLN353      0.2260
     81  O        -19.3520  174.4040  -16.4040 O.2   353  GLN353     -0.2867
     82  CB       -18.8030  176.3230  -14.1620 C.3   353  GLN353      0.0367
     83  CG       -18.0630  175.9070  -12.9200 C.3   353  GLN353      0.0905
     84  CD       -16.6140  176.3110  -12.9510 C.2   353  GLN353      0.2608
     85  OE1      -16.2700  177.5030  -12.9630 O.2   353  GLN353     -0.2717
     86  NE2      -15.7420  175.3130  -12.9700 N.am  353  GLN353     -0.0878
@<TRIPOS>BOND
     1    53    52    2
     2    51    52    1
     3    51    50    1
     4    51    54    1
     5    55    54    1
     6    55    56    1
     7    57    56    1
     8    57    58    1
     9     1     2    1
    10     5     2    1
    11     5     6    1
    12     2     3    1
    13     3     4    2
    14     3     9   am
    15     6     8   am
    16     6     7    2
    17    41    42    1
    18    44    43    2
    19    43    42    1
    20    42    45    1
    21     9    10    1
    22    48    47   ar
    23    10    11    1
    24    10    13    1
    25    45    46    1
    26    47    49   ar
    27    47    46    1
    28    11    12    2
    29    36    35    2
    30    13    14    1
    31    35    34    1
    32    81    80    2
    33    39    37    1
    34    27    26    2
    35    34    37    1
    36    34    33    1
    37    37    38    1
    38    31    30    2
    39    80    79    1
    40    22    21    2
    41    26    25    1
    42    26    28   am
    43    30    29    1
    44    23    21   am
    45    29    28    1
    46    29    32    1
    47    79    82    1
    48    79    78    1
    49    21    20    1
    50    38    40    1
    51    25    24    1
    52    82    83    1
    53    77    75   am
    54    68    67    1
    55    69    67    1
    56    86    84   am
    57    85    84    2
    58    84    83    1
    59    20    19    1
    60    75    74    1
    61    75    76    2
    62    67    66    2
    63    74    71    1
    64    19    16    1
    65    66    65    1
    66    71    70    1
    67    71    72    1
    68    73    72    2
    69    65    64    1
    70    16    15    1
    71    16    17    1
    72    59    60    1
    73    63    60    1
    74    63    64    1
    75    17    18    2
    76    60    61    1
    77    61    62    2
