@<TRIPOS>MOLECULE
tmp/1pr0A00.pdb
 110 102 0 0 0
SMALL
GASTEIGER

@<TRIPOS>ATOM
      1  N         98.0720   65.5320   25.5290 N.3    20  GLY20      -0.1225
      2  CA        98.0880   64.5880   24.4260 C.3    20  GLY20       0.1811
      3  C         99.4180   64.7110   23.7020 C.2    20  GLY20       0.2280
      4  O        100.1870   63.7480   23.6090 O.2    20  GLY20      -0.2866
      5  N         97.6980   60.0890   21.2340 N.3    64  MET64      -0.1245
      6  CA        96.2940   60.2280   20.8620 C.3    64  MET64       0.1570
      7  C         95.5830   58.8830   20.9260 C.2    64  MET64       0.2261
      8  O         96.1500   57.8610   20.5430 O.2    64  MET64      -0.2867
      9  CB        96.1580   60.8130   19.4520 C.3    64  MET64       0.0387
     10  CG        96.8320   62.1760   19.2790 C.3    64  MET64       0.0595
     11  SD        96.4870   62.9670   17.6840 S.3    64  MET64      -0.1393
     12  CE        97.3770   61.8720   16.5840 C.3    64  MET64       0.0692
     13  N         94.2620   64.5950   32.9340 N.3    87  ARG87      -0.1245
     14  CA        94.5280   64.8290   31.5320 C.3    87  ARG87       0.1563
     15  C         94.1690   66.2900   31.2690 C.2    87  ARG87       0.2260
     16  O         93.1510   66.7860   31.7540 O.2    87  ARG87      -0.2867
     17  CB        93.6790   63.9070   30.6470 C.3    87  ARG87       0.0307
     18  CG        93.6170   64.3490   29.1800 C.3    87  ARG87       0.0489
     19  CD        92.7260   63.4340   28.3440 C.3    87  ARG87       0.2205
     20  NE        92.0600   64.1510   27.2540 N.pl3  87  ARG87      -0.0865
     21  CZ        92.6910   64.7580   26.2520 C.cat  87  ARG87       0.5346
     22  NH1       94.0200   64.7430   26.1840 N.pl3  87  ARG87       0.1354
     23  NH2       91.9890   65.3910   25.3200 N.pl3  87  ARG87       0.1354
     24  N         92.5300   69.2700   24.6550 N.3    90  SER90      -0.1202
     25  CA        91.6480   70.1340   23.8880 C.3    90  SER90       0.2020
     26  C         90.5090   69.2950   23.3270 C.2    90  SER90       0.2619
     27  O         90.5800   68.0640   23.3140 O.2    90  SER90      -0.2717
     28  CB        92.4180   70.7970   22.7440 C.3    90  SER90       0.2103
     29  OG        92.9330   69.8240   21.8480 O.3    90  SER90      -0.2182
     30  N         89.4600   69.9600   22.8620 N.am   91  CYS91      -0.1955
     31  CA        88.3190   69.2480   22.3070 C.3    91  CYS91       0.1843
     32  C         87.5460   70.1150   21.3260 C.2    91  CYS91       0.2626
     33  O         87.7910   71.3130   21.2210 O.2    91  CYS91      -0.2714
     34  CB        87.3850   68.7960   23.4360 C.3    91  CYS91       0.0997
     35  SG        86.6920   70.1610   24.4090 S.3    91  CYS91      -0.0797
     36  N         86.6340   69.4850   20.5940 N.am   92  GLY92      -0.1954
     37  CA        85.7990   70.2060   19.6560 C.3    92  GLY92       0.1869
     38  C         84.4020   70.2540   20.2600 C.2    92  GLY92       0.2309
     39  O         83.9470   69.2690   20.8550 O.2    92  GLY92      -0.2863
     40  N         85.8730   59.7790   21.1380 N.3   156  ALA156     -0.1245
     41  CA        85.7600   59.1450   19.8360 C.3   156  ALA156      0.1562
     42  C         86.9790   58.3080   19.4770 C.2   156  ALA156      0.2260
     43  O         88.1180   58.7090   19.7310 O.2   156  ALA156     -0.2867
     44  CB        85.5440   60.2180   18.7680 C.3   156  ALA156      0.0290
     45  N         88.6510   60.0420   14.8270 N.3   159  PHE159     -0.1241
     46  CA        88.7150   61.4890   14.6910 C.3   159  PHE159      0.1605
     47  C         87.9790   61.8710   13.4150 C.2   159  PHE159      0.2264
     48  O         87.3480   62.9240   13.3420 O.2   159  PHE159     -0.2867
     49  CB        90.1770   61.9240   14.6190 C.3   159  PHE159      0.0534
     50  CG        90.3700   63.4020   14.4430 C.ar  159  PHE159     -0.0203
     51  CD1       90.1630   64.0040   13.2050 C.ar  159  PHE159     -0.0042
     52  CD2       90.7740   64.1930   15.5180 C.ar  159  PHE159     -0.0042
     53  CE1       90.3590   65.3760   13.0370 C.ar  159  PHE159     -0.0003
     54  CE2       90.9700   65.5580   15.3630 C.ar  159  PHE159     -0.0003
     55  CZ        90.7630   66.1530   14.1180 C.ar  159  PHE159     -0.0000
     56  N         84.1940   66.9870   22.2910 N.3   178  VAL178     -0.1231
     57  CA        84.5780   65.7350   21.6570 C.3   178  VAL178      0.1692
     58  C         86.0970   65.6060   21.6870 C.2   178  VAL178      0.2592
     59  O         86.8090   66.4280   21.1020 O.2   178  VAL178     -0.2718
     60  CB        84.1350   65.6730   20.1720 C.3   178  VAL178      0.0266
     61  CG1       84.5820   64.3550   19.5510 C.3   178  VAL178      0.0020
     62  CG2       82.6320   65.8250   20.0610 C.3   178  VAL178      0.0020
     63  N         86.5920   64.5910   22.3880 N.am  179  GLU179     -0.1966
     64  CA        88.0220   64.3430   22.4430 C.3   179  GLU179      0.1733
     65  C         88.2530   62.8460   22.2290 C.2   179  GLU179      0.2616
     66  O         87.3690   62.1650   21.6990 O.2   179  GLU179     -0.2715
     67  CB        88.6190   64.8650   23.7590 C.3   179  GLU179      0.0429
     68  CG        87.8890   64.4940   25.0340 C.3   179  GLU179      0.1163
     69  CD        88.2390   63.1000   25.5080 C.2   179  GLU179      0.3649
     70  OE1       87.4070   62.1890   25.3060 O.co2 179  GLU179     -0.2457
     71  OE2       89.3520   62.9180   26.0670 O.co2 179  GLU179     -0.2457
     72  N         89.4040   62.3110   22.6200 N.am  180  MET180     -0.1963
     73  CA        89.6480   60.8880   22.3660 C.3   180  MET180      0.1736
     74  C         90.2210   60.0100   23.4810 C.2   180  MET180      0.2616
     75  O         90.5630   58.8540   23.2190 O.2   180  MET180     -0.2715
     76  CB        90.5660   60.7460   21.1470 C.3   180  MET180      0.0427
     77  CG        90.0110   61.3380   19.8750 C.3   180  MET180      0.0599
     78  SD        91.2210   61.2850   18.5450 S.3   180  MET180     -0.1393
     79  CE        91.3320   59.5280   18.2430 C.3   180  MET180      0.0692
     80  N         90.3150   60.5110   24.7110 N.am  181  GLU181     -0.1977
     81  CA        90.9210   59.6990   25.7670 C.3   181  GLU181      0.1602
     82  C         90.1480   59.4850   27.0680 C.2   181  GLU181      0.2287
     83  O         90.1960   58.3970   27.6390 O.2   181  GLU181     -0.2864
     84  CB        92.2950   60.2700   26.1310 C.3   181  GLU181      0.0415
     85  CG        93.3310   60.3020   25.0070 C.3   181  GLU181      0.1163
     86  CD        93.0760   61.3990   23.9890 C.2   181  GLU181      0.3649
     87  OE1       92.3760   62.3790   24.3210 O.co2 181  GLU181     -0.2457
     88  OE2       93.5880   61.2890   22.8560 O.co2 181  GLU181     -0.2457
     89  N         89.0380   73.9420   21.3290 N.3   203  SER203     -0.1202
     90  CA        89.9510   74.3950   20.2850 C.3   203  SER203      0.2020
     91  C         89.2650   74.5810   18.9410 C.2   203  SER203      0.2618
     92  O         89.8120   75.2080   18.0380 O.2   203  SER203     -0.2717
     93  CB        91.0910   73.3940   20.1220 C.3   203  SER203      0.2103
     94  OG        90.5850   72.1460   19.6890 O.3   203  SER203     -0.2182
     95  N         88.0730   74.0210   18.8010 N.am  204  ASP204     -0.1973
     96  CA        87.3390   74.1480   17.5560 C.3   204  ASP204      0.1709
     97  C         85.8730   73.8430   17.7700 C.2   204  ASP204      0.2293
     98  O         85.4700   73.3220   18.8080 O.2   204  ASP204     -0.2864
     99  CB        87.9140   73.2160   16.4730 C.3   204  ASP204      0.1436
    100  CG        87.7480   71.7250   16.8060 C.2   204  ASP204      0.3671
    101  OD1       88.5060   71.1920   17.6560 O.co2 204  ASP204     -0.2456
    102  OD2       86.8530   71.0800   16.2090 O.co2 204  ASP204     -0.2456
    103  N         83.0480   71.8080   15.8960 N.3   206  ILE206     -0.1245
    104  CA        82.7160   70.8290   14.8630 C.3   206  ILE206      0.1561
    105  C         81.4340   71.2080   14.1330 C.2   206  ILE206      0.2260
    106  O         80.4060   70.5460   14.2740 O.2   206  ILE206     -0.2867
    107  CB        82.5290   69.4270   15.4750 C.3   206  ILE206      0.0252
    108  CG1       83.6420   69.1470   16.4870 C.3   206  ILE206      0.0019
    109  CG2       82.5520   68.3790   14.3750 C.3   206  ILE206      0.0019
    110  CD1       83.4100   67.9060   17.3130 C.3   206  ILE206      0.0001
@<TRIPOS>BOND
     1    53    51   ar
     2    53    55   ar
     3    51    50   ar
     4    48    47    2
     5    47    46    1
     6    55    54   ar
     7   105   106    2
     8   105   104    1
     9   109   107    1
    10    50    49    1
    11    50    52   ar
    12    49    46    1
    13    46    45    1
    14   104   107    1
    15   104   103    1
    16    54    52   ar
    17   107   108    1
    18   102   100   ar
    19    99   100    1
    20    99    96    1
    21   108   110    1
    22    12    11    1
    23   100   101   ar
    24    96    97    1
    25    96    95    1
    26    11    10    1
    27    97    98    2
    28    92    91    2
    29    79    78    1
    30    78    77    1
    31    44    41    1
    32    95    91   am
    33    91    90    1
    34    10     9    1
    35     9     6    1
    36    42    43    2
    37    42    41    1
    38    61    60    1
    39    37    38    1
    40    37    36    1
    41    94    93    1
    42    41    40    1
    43    77    76    1
    44    62    60    1
    45    93    90    1
    46    60    57    1
    47    38    39    2
    48    90    89    1
    49     8     7    2
    50    36    32   am
    51     6     7    1
    52     6     5    1
    53    59    58    2
    54    76    73    1
    55    33    32    2
    56    32    31    1
    57    57    58    1
    58    57    56    1
    59    58    63   am
    60    66    65    2
    61    29    28    1
    62    65    64    1
    63    65    72   am
    64    31    30    1
    65    31    34    1
    66    73    72    1
    67    73    74    1
    68    63    64    1
    69    64    67    1
    70    28    25    1
    71    88    86   ar
    72    30    26   am
    73    75    74    2
    74    27    26    2
    75    26    25    1
    76    34    35    1
    77    74    80   am
    78     4     3    2
    79     3     2    1
    80    67    68    1
    81    25    24    1
    82    86    87   ar
    83    86    85    1
    84     2     1    1
    85    80    81    1
    86    85    84    1
    87    68    69    1
    88    70    69   ar
    89    23    21    1
    90    69    71   ar
    91    81    84    1
    92    81    82    1
    93    22    21    1
    94    21    20    2
    95    82    83    2
    96    20    19    1
    97    19    18    1
    98    18    17    1
    99    17    14    1
   100    15    14    1
   101    15    16    2
   102    14    13    1
