@<TRIPOS>MOLECULE
tmp/1pr4A00.pdb
 121 113 0 0 0
SMALL
GASTEIGER

@<TRIPOS>ATOM
      1  N         97.7390   65.1440   25.3440 N.3    20  GLY20      -0.1225
      2  CA        97.7660   64.2020   24.2400 C.3    20  GLY20       0.1811
      3  C         99.0700   64.3360   23.4630 C.2    20  GLY20       0.2280
      4  O         99.7500   63.3380   23.1840 O.2    20  GLY20      -0.2866
      5  N         97.3280   59.9150   21.1780 N.3    64  MET64      -0.1245
      6  CA        95.9320   60.0550   20.7840 C.3    64  MET64       0.1570
      7  C         95.2100   58.7090   20.7800 C.2    64  MET64       0.2261
      8  O         95.7370   57.7090   20.2840 O.2    64  MET64      -0.2867
      9  CB        95.8360   60.6770   19.3900 C.3    64  MET64       0.0387
     10  CG        96.5110   62.0320   19.2590 C.3    64  MET64       0.0595
     11  SD        96.1940   62.7900   17.6470 S.3    64  MET64      -0.1393
     12  CE        97.0540   61.6480   16.5630 C.3    64  MET64       0.0692
     13  N         93.9860   64.4090   32.8350 N.3    87  ARG87      -0.1245
     14  CA        94.2170   64.5980   31.4140 C.3    87  ARG87       0.1563
     15  C         93.8600   66.0460   31.1050 C.2    87  ARG87       0.2260
     16  O         92.7770   66.5180   31.4570 O.2    87  ARG87      -0.2867
     17  CB        93.3470   63.6510   30.5800 C.3    87  ARG87       0.0307
     18  CG        93.2940   64.0160   29.0940 C.3    87  ARG87       0.0489
     19  CD        92.4080   63.0650   28.2910 C.3    87  ARG87       0.2205
     20  NE        91.7640   63.7410   27.1650 N.pl3  87  ARG87      -0.0865
     21  CZ        92.4160   64.3380   26.1660 C.cat  87  ARG87       0.5346
     22  NH1       91.7350   64.9280   25.1910 N.pl3  87  ARG87       0.1354
     23  NH2       93.7460   64.3440   26.1330 N.pl3  87  ARG87       0.1354
     24  N         92.3780   69.0420   24.4970 N.3    90  SER90      -0.1202
     25  CA        91.4960   69.8650   23.6880 C.3    90  SER90       0.2020
     26  C         90.3360   69.0210   23.1730 C.2    90  SER90       0.2619
     27  O         90.3820   67.7930   23.2180 O.2    90  SER90      -0.2717
     28  CB        92.2670   70.4650   22.5120 C.3    90  SER90       0.2103
     29  OG        92.8530   69.4450   21.7210 O.3    90  SER90      -0.2182
     30  N         89.3000   69.6860   22.6780 N.am   91  CYS91      -0.1955
     31  CA        88.1340   68.9870   22.1670 C.3    91  CYS91       0.1843
     32  C         87.3650   69.8520   21.1750 C.2    91  CYS91       0.2626
     33  O         87.6420   71.0430   21.0250 O.2    91  CYS91      -0.2714
     34  CB        87.2080   68.6070   23.3300 C.3    91  CYS91       0.0997
     35  SG        86.5040   70.0330   24.2360 S.3    91  CYS91      -0.0797
     36  N         86.4030   69.2340   20.4970 N.am   92  GLY92      -0.1954
     37  CA        85.5680   69.9570   19.5590 C.3    92  GLY92       0.1869
     38  C         84.1740   70.0490   20.1560 C.2    92  GLY92       0.2309
     39  O         83.7000   69.0900   20.7620 O.2    92  GLY92      -0.2863
     40  N         85.7090   59.5920   21.1030 N.3   156  ALA156     -0.1245
     41  CA        85.6100   58.9450   19.8000 C.3   156  ALA156      0.1562
     42  C         86.8130   58.0830   19.4480 C.2   156  ALA156      0.2260
     43  O         87.9500   58.4190   19.7870 O.2   156  ALA156     -0.2867
     44  CB        85.4140   60.0090   18.7160 C.3   156  ALA156      0.0290
     45  N         88.4190   59.8520   14.6310 N.3   159  PHE159     -0.1241
     46  CA        88.4200   61.3030   14.5080 C.3   159  PHE159      0.1605
     47  C         87.6330   61.6580   13.2530 C.2   159  PHE159      0.2264
     48  O         86.8980   62.6410   13.2390 O.2   159  PHE159     -0.2867
     49  CB        89.8600   61.8080   14.3970 C.3   159  PHE159      0.0534
     50  CG        89.9770   63.2960   14.2130 C.ar  159  PHE159     -0.0203
     51  CD1       89.8110   63.8750   12.9560 C.ar  159  PHE159     -0.0042
     52  CD2       90.2770   64.1220   15.2980 C.ar  159  PHE159     -0.0042
     53  CE1       89.9480   65.2520   12.7770 C.ar  159  PHE159     -0.0003
     54  CE2       90.4170   65.5040   15.1310 C.ar  159  PHE159     -0.0003
     55  CZ        90.2530   66.0690   13.8650 C.ar  159  PHE159     -0.0000
     56  N         76.9350   63.3860   15.4110 N.3   167  PHE167     -0.1241
     57  CA        77.1610   64.6940   16.0180 C.3   167  PHE167      0.1605
     58  C         75.8500   65.3520   16.4520 C.2   167  PHE167      0.2264
     59  O         75.8170   66.0870   17.4420 O.2   167  PHE167     -0.2867
     60  CB        77.9180   65.6050   15.0460 C.3   167  PHE167      0.0534
     61  CG        79.3970   65.3090   14.9600 C.ar  167  PHE167     -0.0203
     62  CD1       80.0760   65.4320   13.7500 C.ar  167  PHE167     -0.0042
     63  CD2       80.1100   64.9120   16.0920 C.ar  167  PHE167     -0.0042
     64  CE1       81.4440   65.1610   13.6680 C.ar  167  PHE167     -0.0003
     65  CE2       81.4790   64.6380   16.0220 C.ar  167  PHE167     -0.0003
     66  CZ        82.1470   64.7620   14.8110 C.ar  167  PHE167     -0.0000
     67  N         84.0220   66.8790   22.1700 N.3   178  VAL178     -0.1231
     68  CA        84.4030   65.6280   21.5320 C.3   178  VAL178      0.1692
     69  C         85.9250   65.5050   21.5490 C.2   178  VAL178      0.2592
     70  O         86.6410   66.3860   21.0600 O.2   178  VAL178     -0.2718
     71  CB        83.9370   65.5770   20.0560 C.3   178  VAL178      0.0266
     72  CG1       84.2590   64.2160   19.4510 C.3   178  VAL178      0.0020
     73  CG2       82.4540   65.8710   19.9640 C.3   178  VAL178      0.0020
     74  N         86.4110   64.4160   22.1290 N.am  179  GLU179     -0.1966
     75  CA        87.8400   64.1550   22.1880 C.3   179  GLU179      0.1733
     76  C         88.0520   62.6460   22.0400 C.2   179  GLU179      0.2616
     77  O         87.1710   61.9640   21.5320 O.2   179  GLU179     -0.2715
     78  CB        88.4470   64.7330   23.4790 C.3   179  GLU179      0.0429
     79  CG        87.6960   64.4360   24.7620 C.3   179  GLU179      0.1163
     80  CD        87.9530   63.0410   25.2550 C.2   179  GLU179      0.3649
     81  OE1       87.0250   62.2090   25.2010 O.co2 179  GLU179     -0.2457
     82  OE2       89.0960   62.7790   25.6870 O.co2 179  GLU179     -0.2457
     83  N         89.1800   62.1050   22.4800 N.am  180  MET180     -0.1963
     84  CA        89.4170   60.6800   22.2510 C.3   180  MET180      0.1736
     85  C         90.0230   59.8450   23.3800 C.2   180  MET180      0.2616
     86  O         90.4780   58.7340   23.1210 O.2   180  MET180     -0.2715
     87  CB        90.3220   60.5210   21.0130 C.3   180  MET180      0.0427
     88  CG        89.7530   61.0700   19.7040 C.3   180  MET180      0.0599
     89  SD        90.9640   61.1270   18.3260 S.3   180  MET180     -0.1393
     90  CE        91.1290   59.3720   17.9190 C.3   180  MET180      0.0692
     91  N         90.0190   60.3290   24.6180 N.am  181  GLU181     -0.1977
     92  CA        90.6580   59.5610   25.6820 C.3   181  GLU181      0.1602
     93  C         89.9090   59.3860   26.9990 C.2   181  GLU181      0.2287
     94  O         90.0270   58.3470   27.6510 O.2   181  GLU181     -0.2864
     95  CB        92.0350   60.1670   25.9880 C.3   181  GLU181      0.0415
     96  CG        93.0620   60.1130   24.8540 C.3   181  GLU181      0.1163
     97  CD        92.9070   61.2250   23.8140 C.2   181  GLU181      0.3649
     98  OE1       92.1920   62.2220   24.0720 O.co2 181  GLU181     -0.2457
     99  OE2       93.5220   61.1080   22.7330 O.co2 181  GLU181     -0.2457
    100  N         88.9440   73.8200   21.1630 N.3   203  SER203     -0.1202
    101  CA        89.8570   74.3110   20.1370 C.3   203  SER203      0.2020
    102  C         89.2460   74.2660   18.7520 C.2   203  SER203      0.2618
    103  O         89.9250   74.5160   17.7580 O.2   203  SER203     -0.2717
    104  CB        91.1360   73.4780   20.1420 C.3   203  SER203      0.2103
    105  OG        90.8320   72.1080   19.9600 O.3   203  SER203     -0.2182
    106  N         87.9600   73.9480   18.6880 N.am  204  ASP204     -0.1973
    107  CA        87.2640   73.8460   17.4170 C.3   204  ASP204      0.1709
    108  C         85.7760   73.7000   17.6600 C.2   204  ASP204      0.2293
    109  O         85.3560   72.9820   18.5650 O.2   204  ASP204     -0.2864
    110  CB        87.7640   72.6180   16.6540 C.3   204  ASP204      0.1436
    111  CG        86.9090   72.2890   15.4450 C.2   204  ASP204      0.3671
    112  OD1       86.8510   71.0980   15.0630 O.co2 204  ASP204     -0.2456
    113  OD2       86.3050   73.2190   14.8680 O.co2 204  ASP204     -0.2456
    114  N         82.3880   72.4520   15.8840 N.3   206  ILE206     -0.1245
    115  CA        81.9060   71.6930   14.7380 C.3   206  ILE206      0.1561
    116  C         80.5930   72.2630   14.2020 C.2   206  ILE206      0.2260
    117  O         80.5800   73.0160   13.2290 O.2   206  ILE206     -0.2867
    118  CB        81.6970   70.2100   15.1240 C.3   206  ILE206      0.0252
    119  CG1       82.9390   69.6860   15.8580 C.3   206  ILE206      0.0019
    120  CG2       81.4120   69.3800   13.8740 C.3   206  ILE206      0.0019
    121  CD1       82.7390   68.3340   16.5150 C.3   206  ILE206      0.0001
@<TRIPOS>BOND
     1    53    51   ar
     2    53    55   ar
     3    51    50   ar
     4   117   116    2
     5    48    47    2
     6    47    46    1
     7    64    62   ar
     8    64    66   ar
     9    62    61   ar
    10    55    54   ar
    11   120   118    1
    12   116   115    1
    13    50    49    1
    14    50    52   ar
    15    49    46    1
    16    46    45    1
    17   115   118    1
    18   115   114    1
    19    66    65   ar
    20   113   111   ar
    21    61    60    1
    22    61    63   ar
    23    60    57    1
    24   112   111   ar
    25   118   119    1
    26    54    52   ar
    27    56    57    1
    28   111   110    1
    29   119   121    1
    30    57    58    1
    31    65    63   ar
    32    58    59    2
    33    12    11    1
    34   110   107    1
    35   107   108    1
    36   107   106    1
    37    11    10    1
    38   108   109    2
    39   103   102    2
    40    90    89    1
    41    89    88    1
    42   106   102   am
    43    44    41    1
    44   102   101    1
    45    10     9    1
    46     9     6    1
    47    42    43    2
    48    42    41    1
    49    72    71    1
    50    37    38    1
    51    37    36    1
    52    88    87    1
    53    41    40    1
    54   105   104    1
    55    73    71    1
    56    71    68    1
    57   101   104    1
    58   101   100    1
    59    38    39    2
    60     8     7    2
    61    36    32   am
    62     7     6    1
    63     6     5    1
    64    87    84    1
    65    33    32    2
    66    70    69    2
    67    32    31    1
    68    77    76    2
    69    68    69    1
    70    68    67    1
    71    69    74   am
    72    29    28    1
    73    76    75    1
    74    76    83   am
    75    74    75    1
    76    31    30    1
    77    31    34    1
    78    75    78    1
    79    84    83    1
    80    84    85    1
    81    28    25    1
    82    30    26   am
    83    99    97   ar
    84    86    85    2
    85    26    27    2
    86    26    25    1
    87     4     3    2
    88    34    35    1
    89    85    91   am
    90     3     2    1
    91    78    79    1
    92    25    24    1
    93    97    98   ar
    94    97    96    1
    95     2     1    1
    96    91    92    1
    97    79    80    1
    98    96    95    1
    99    22    21    1
   100    81    80   ar
   101    80    82   ar
   102    92    95    1
   103    92    93    1
   104    23    21    1
   105    21    20    2
   106    93    94    2
   107    20    19    1
   108    19    18    1
   109    18    17    1
   110    17    14    1
   111    15    14    1
   112    15    16    2
   113    14    13    1
