@<TRIPOS>MOLECULE
tmp/1pr5A00.pdb
 124 117 0 0 0
SMALL
GASTEIGER

@<TRIPOS>ATOM
      1  N         97.8140   65.2140   25.2780 N.3    20  GLY20      -0.1225
      2  CA        97.8450   64.2030   24.2350 C.3    20  GLY20       0.1811
      3  C         99.1990   64.2960   23.5430 C.2    20  GLY20       0.2280
      4  O         99.8760   63.2890   23.3010 O.2    20  GLY20      -0.2866
      5  N        100.0300   61.2040   26.6160 N.3    62  HIS62      -0.1226
      6  CA        99.4480   59.8670   26.5160 C.3    62  HIS62       0.1752
      7  C         99.2120   59.3980   25.0810 C.2    62  HIS62       0.2597
      8  O         98.9350   58.2290   24.8520 O.2    62  HIS62      -0.2718
      9  CB        98.1360   59.7760   27.3250 C.3    62  HIS62       0.0759
     10  CG        97.1200   60.8260   26.9850 C.ar   62  HIS62       0.0818
     11  ND1       96.7130   61.0860   25.6930 N.ar   62  HIS62      -0.2268
     12  CD2       96.4110   61.6670   27.7760 C.ar   62  HIS62       0.1154
     13  CE1       95.8000   62.0410   25.7030 C.ar   62  HIS62       0.1986
     14  NE2       95.5980   62.4110   26.9550 N.ar   62  HIS62      -0.2212
     15  N         99.3420   60.3010   24.1140 N.am   63  GLY63      -0.1942
     16  CA        99.1130   59.9240   22.7320 C.3    63  GLY63       0.2014
     17  C         97.6430   60.0220   22.3660 C.2    63  GLY63       0.2638
     18  O         96.7970   60.2250   23.2370 O.2    63  GLY63      -0.2714
     19  N         97.3270   59.8820   21.0830 N.am   64  MET64      -0.1976
     20  CA        95.9420   59.9650   20.6360 C.3    64  MET64       0.1605
     21  C         95.2650   58.6030   20.6460 C.2    64  MET64       0.2287
     22  O         95.8750   57.5970   20.2880 O.2    64  MET64      -0.2864
     23  CB        95.8730   60.5540   19.2300 C.3    64  MET64       0.0413
     24  CG        96.5650   61.8960   19.1020 C.3    64  MET64       0.0598
     25  SD        96.1190   62.8010   17.6070 S.3    64  MET64      -0.1393
     26  CE        96.9370   61.7910   16.3300 C.3    64  MET64       0.0692
     27  N         93.7600   64.6840   32.7480 N.3    87  ARG87      -0.1245
     28  CA        94.0290   64.8330   31.3310 C.3    87  ARG87       0.1563
     29  C         93.7150   66.2720   30.9470 C.2    87  ARG87       0.2260
     30  O         92.6510   66.7910   31.2710 O.2    87  ARG87      -0.2867
     31  CB        93.1760   63.8670   30.4980 C.3    87  ARG87       0.0307
     32  CG        93.1410   64.2400   29.0230 C.3    87  ARG87       0.0489
     33  CD        92.3240   63.2830   28.1720 C.3    87  ARG87       0.2205
     34  NE        91.7310   63.9600   27.0140 N.pl3  87  ARG87      -0.0865
     35  CZ        92.4250   64.5810   26.0610 C.cat  87  ARG87       0.5346
     36  NH1       93.7530   64.6170   26.1090 N.pl3  87  ARG87       0.1354
     37  NH2       91.7900   65.1820   25.0640 N.pl3  87  ARG87       0.1354
     38  N         92.3080   69.1230   24.2140 N.3    90  SER90      -0.1202
     39  CA        91.3970   69.9340   23.4200 C.3    90  SER90       0.2020
     40  C         90.2430   69.0780   22.9190 C.2    90  SER90       0.2619
     41  O         90.2830   67.8510   23.0100 O.2    90  SER90      -0.2717
     42  CB        92.1380   70.5510   22.2350 C.3    90  SER90       0.2103
     43  OG        92.7530   69.5480   21.4500 O.3    90  SER90      -0.2182
     44  N         89.2150   69.7260   22.3850 N.am   91  CYS91      -0.1955
     45  CA        88.0580   68.9960   21.8850 C.3    91  CYS91       0.1843
     46  C         87.2340   69.8760   20.9620 C.2    91  CYS91       0.2626
     47  O         87.3680   71.0980   20.9830 O.2    91  CYS91      -0.2714
     48  CB        87.1830   68.5590   23.0530 C.3    91  CYS91       0.0997
     49  SG        86.4720   69.9630   23.9300 S.3    91  CYS91      -0.0797
     50  N         86.3830   69.2460   20.1550 N.am   92  GLY92      -0.1954
     51  CA        85.5200   69.9940   19.2630 C.3    92  GLY92       0.1869
     52  C         84.1370   70.0960   19.8830 C.2    92  GLY92       0.2309
     53  O         83.7030   69.1840   20.5810 O.2    92  GLY92      -0.2863
     54  N         85.6340   59.6490   21.0580 N.3   156  ALA156     -0.1245
     55  CA        85.4760   59.0040   19.7590 C.3   156  ALA156      0.1562
     56  C         86.6830   58.1590   19.3870 C.2   156  ALA156      0.2260
     57  O         87.8210   58.5020   19.7220 O.2   156  ALA156     -0.2867
     58  CB        85.2520   60.0560   18.6900 C.3   156  ALA156      0.0290
     59  N         88.4990   59.8440   14.4640 N.3   159  PHE159     -0.1241
     60  CA        88.5660   61.2900   14.3100 C.3   159  PHE159      0.1605
     61  C         87.7490   61.6480   13.0660 C.2   159  PHE159      0.2264
     62  O         87.0360   62.6500   13.0380 O.2   159  PHE159     -0.2867
     63  CB        90.0280   61.7130   14.1460 C.3   159  PHE159      0.0534
     64  CG        90.2360   63.2010   14.0790 C.ar  159  PHE159     -0.0203
     65  CD1       90.1410   63.8800   12.8630 C.ar  159  PHE159     -0.0042
     66  CD2       90.5410   63.9260   15.2310 C.ar  159  PHE159     -0.0042
     67  CE1       90.3500   65.2560   12.7960 C.ar  159  PHE159     -0.0003
     68  CE2       90.7490   65.2960   15.1720 C.ar  159  PHE159     -0.0003
     69  CZ        90.6550   65.9640   13.9520 C.ar  159  PHE159     -0.0000
     70  N         83.8860   66.9900   21.9730 N.3   178  VAL178     -0.1231
     71  CA        84.3140   65.7270   21.3850 C.3   178  VAL178      0.1692
     72  C         85.8360   65.5970   21.3980 C.2   178  VAL178      0.2592
     73  O         86.5460   66.4190   20.8120 O.2   178  VAL178     -0.2718
     74  CB        83.8350   65.6020   19.9240 C.3   178  VAL178      0.0266
     75  CG1       84.3440   64.2980   19.3200 C.3   178  VAL178      0.0020
     76  CG2       82.3170   65.6660   19.8680 C.3   178  VAL178      0.0020
     77  N         86.3280   64.5680   22.0810 N.am  179  GLU179     -0.1966
     78  CA        87.7610   64.3010   22.1620 C.3   179  GLU179      0.1733
     79  C         87.9840   62.8070   21.9080 C.2   179  GLU179      0.2616
     80  O         87.1260   62.1600   21.3150 O.2   179  GLU179     -0.2715
     81  CB        88.3280   64.7530   23.5250 C.3   179  GLU179      0.0429
     82  CG        87.5590   64.2850   24.7670 C.3   179  GLU179      0.1163
     83  CD        87.9800   62.9020   25.2430 C.2   179  GLU179      0.3649
     84  OE1       89.1410   62.7510   25.7010 O.co2 179  GLU179     -0.2457
     85  OE2       87.1490   61.9700   25.1550 O.co2 179  GLU179     -0.2457
     86  N         89.1060   62.2430   22.3430 N.am  180  MET180     -0.1963
     87  CA        89.3360   60.8270   22.0600 C.3   180  MET180      0.1736
     88  C         89.9020   59.9190   23.1520 C.2   180  MET180      0.2616
     89  O         90.4170   58.8470   22.8380 O.2   180  MET180     -0.2715
     90  CB        90.2220   60.6890   20.8160 C.3   180  MET180      0.0427
     91  CG        89.5700   61.1130   19.5150 C.3   180  MET180      0.0599
     92  SD        90.7640   61.2430   18.1530 S.3   180  MET180     -0.1393
     93  CE        91.1050   59.5420   17.8130 C.3   180  MET180      0.0692
     94  N         89.8140   60.3000   24.4220 N.am  181  GLU181     -0.1977
     95  CA        90.3590   59.3990   25.4290 C.3   181  GLU181      0.1602
     96  C         89.7350   59.3630   26.8230 C.2   181  GLU181      0.2287
     97  O         89.8740   58.3680   27.5340 O.2   181  GLU181     -0.2864
     98  CB        91.8810   59.6010   25.5440 C.3   181  GLU181      0.0415
     99  CG        92.3660   61.0300   25.4030 C.3   181  GLU181      0.1163
    100  CD        92.5270   61.4660   23.9550 C.2   181  GLU181      0.3649
    101  OE1       91.8040   62.3870   23.5190 O.co2 181  GLU181     -0.2457
    102  OE2       93.3810   60.8880   23.2540 O.co2 181  GLU181     -0.2457
    103  N         88.7270   73.7150   20.9750 N.3   203  SER203     -0.1202
    104  CA        89.6210   74.1860   19.9250 C.3   203  SER203      0.2020
    105  C         88.9460   74.3370   18.5590 C.2   203  SER203      0.2618
    106  O         89.5820   74.7640   17.5930 O.2   203  SER203     -0.2717
    107  CB        90.8350   73.2590   19.8040 C.3   203  SER203      0.2103
    108  OG        90.4710   71.9930   19.2920 O.3   203  SER203     -0.2182
    109  N         87.6660   73.9820   18.4740 N.am  204  ASP204     -0.1973
    110  CA        86.9120   74.1080   17.2290 C.3   204  ASP204      0.1709
    111  C         85.4810   73.6200   17.4100 C.2   204  ASP204      0.2293
    112  O         85.1520   72.9960   18.4170 O.2   204  ASP204     -0.2864
    113  CB        87.5920   73.3310   16.0930 C.3   204  ASP204      0.1436
    114  CG        87.5960   71.8360   16.3230 C.2   204  ASP204      0.3671
    115  OD1       88.1100   71.3910   17.3690 O.co2 204  ASP204     -0.2456
    116  OD2       87.0890   71.1020   15.4500 O.co2 204  ASP204     -0.2456
    117  N         83.7070   71.1910   15.9260 N.3   206  ILE206     -0.1245
    118  CA        83.6960   69.9480   15.1530 C.3   206  ILE206      0.1561
    119  C         84.1980   70.1430   13.7190 C.2   206  ILE206      0.2260
    120  O         85.4070   70.1390   13.4650 O.2   206  ILE206     -0.2867
    121  CB        82.2740   69.3140   15.1410 C.3   206  ILE206      0.0252
    122  CG1       82.3410   67.9120   15.7430 C.3   206  ILE206      0.0019
    123  CG2       81.7120   69.2570   13.7210 C.3   206  ILE206      0.0019
    124  CD1       82.9020   67.8770   17.1430 C.3   206  ILE206      0.0001
@<TRIPOS>BOND
     1    67    65   ar
     2    67    69   ar
     3    65    64   ar
     4    62    61    2
     5    61    60    1
     6   120   119    2
     7   119   118    1
     8   123   121    1
     9    69    68   ar
    10    64    63    1
    11    64    66   ar
    12    63    60    1
    13    60    59    1
    14   121   118    1
    15   121   122    1
    16   118   117    1
    17    68    66   ar
    18   116   114   ar
    19   122   124    1
    20   113   114    1
    21   113   110    1
    22   114   115   ar
    23    26    25    1
    24   110   111    1
    25   110   109    1
    26   111   112    2
    27   106   105    2
    28    25    24    1
    29    93    92    1
    30    92    91    1
    31   109   105   am
    32   105   104    1
    33    58    55    1
    34    24    23    1
    35    23    20    1
    36    51    52    1
    37    51    50    1
    38   108   107    1
    39    75    74    1
    40    56    57    2
    41    56    55    1
    42    91    90    1
    43    55    54    1
    44   107   104    1
    45    76    74    1
    46    52    53    2
    47    74    71    1
    48   104   103    1
    49    50    46   am
    50    22    21    2
    51    20    21    1
    52    20    19    1
    53    73    72    2
    54    90    87    1
    55    46    47    2
    56    46    45    1
    57    19    17   am
    58    80    79    2
    59    71    72    1
    60    71    70    1
    61    72    77   am
    62    43    42    1
    63    45    44    1
    64    45    48    1
    65    79    78    1
    66    79    86   am
    67    87    86    1
    68    87    88    1
    69    77    78    1
    70    78    81    1
    71    42    39    1
    72    17    16    1
    73    17    18    2
    74    44    40   am
    75    16    15    1
    76    89    88    2
    77    40    41    2
    78    40    39    1
    79    48    49    1
    80    88    94   am
    81   102   100   ar
    82     4     3    2
    83    39    38    1
    84   101   100   ar
    85    81    82    1
    86     3     2    1
    87   100    99    1
    88    15     7   am
    89     2     1    1
    90    94    95    1
    91    82    83    1
    92     8     7    2
    93    37    35    1
    94     7     6    1
    95    85    83   ar
    96    83    84   ar
    97    99    98    1
    98    95    98    1
    99    95    96    1
   100    11    13   ar
   101    11    10   ar
   102    13    14   ar
   103    35    36    1
   104    35    34    2
   105     6     5    1
   106     6     9    1
   107    96    97    2
   108    14    12   ar
   109    10     9    1
   110    10    12   ar
   111    34    33    1
   112    33    32    1
   113    32    31    1
   114    31    28    1
   115    29    30    2
   116    29    28    1
   117    28    27    1
