@<TRIPOS>MOLECULE
tmp/1prhA00.pdb
 230 225 0 0 0
SMALL
GASTEIGER

@<TRIPOS>ATOM
      1  N         35.5300   34.8500  188.8500 N.3   116  TYR116     -0.1241
      2  CA        34.5200   34.2800  189.7400 C.3   116  TYR116      0.1605
      3  C         34.5100   32.7500  189.6700 C.2   116  TYR116      0.2264
      4  O         34.1500   32.1500  188.6600 O.2   116  TYR116     -0.2867
      5  CB        33.0700   34.6900  189.4400 C.3   116  TYR116      0.0534
      6  CG        32.5800   36.1100  189.6400 C.ar  116  TYR116     -0.0201
      7  CD1       32.6200   36.7000  190.8800 C.ar  116  TYR116     -0.0009
      8  CD2       32.0000   36.7700  188.5900 C.ar  116  TYR116     -0.0009
      9  CE1       32.0600   37.9500  191.0500 C.ar  116  TYR116      0.0417
     10  CE2       31.4300   38.0100  188.7600 C.ar  116  TYR116      0.0417
     11  CZ        31.4600   38.6000  189.9900 C.ar  116  TYR116      0.1957
     12  OH        30.9000   39.8500  190.1900 O.3   116  TYR116     -0.2866
     13  N         21.2700   48.0000  206.1000 N.3   167  ALA167     -0.1245
     14  CA        20.9900   47.7900  204.7000 C.3   167  ALA167      0.1562
     15  C         22.0200   48.4200  203.8100 C.2   167  ALA167      0.2260
     16  O         22.5500   47.7900  202.9200 O.2   167  ALA167     -0.2867
     17  CB        19.6700   48.3900  204.2800 C.3   167  ALA167      0.0290
     18  N         25.7400   46.9600  204.2100 N.3   170  ALA170     -0.1231
     19  CA        25.7800   45.7700  203.4000 C.3   170  ALA170      0.1694
     20  C         25.9100   46.0900  201.9300 C.2   170  ALA170      0.2591
     21  O         26.6100   45.3900  201.2100 O.2   170  ALA170     -0.2718
     22  CB        24.5200   44.9600  203.5500 C.3   170  ALA170      0.0304
     23  N         25.2600   47.1400  201.4600 N.am  171  GLN171     -0.1979
     24  CA        25.3200   47.4800  200.0600 C.3   171  GLN171      0.1601
     25  C         26.7300   47.9200  199.7800 C.2   171  GLN171      0.2287
     26  O         27.4200   47.3000  198.9900 O.2   171  GLN171     -0.2864
     27  CB        24.3600   48.5900  199.7300 C.3   171  GLN171      0.0394
     28  CG        24.1500   48.6800  198.2300 C.3   171  GLN171      0.0908
     29  CD        23.0700   49.6600  197.7900 C.2   171  GLN171      0.2608
     30  OE1       23.0600   50.1300  196.6500 O.2   171  GLN171     -0.2717
     31  NE2       22.0900   50.0200  198.6000 N.am  171  GLN171     -0.0878
     32  N         29.4700   45.0000  200.1600 N.3   174  THR174     -0.1203
     33  CA        29.3500   44.0800  199.0700 C.3   174  THR174      0.1994
     34  C         29.8500   44.6000  197.7300 C.2   174  THR174      0.2617
     35  O         30.5000   43.8800  196.9600 O.2   174  THR174     -0.2717
     36  CB        27.9000   43.7700  199.1500 C.3   174  THR174      0.1784
     37  OG1       27.8700   42.9000  200.2700 O.3   174  THR174     -0.2211
     38  CG2       27.2600   43.2400  197.9300 C.3   174  THR174      0.0376
     39  N         29.7100   45.8800  197.4700 N.am  175  HIS175     -0.1975
     40  CA        30.0900   46.4200  196.1900 C.3   175  HIS175      0.1656
     41  C         31.5800   46.6500  195.9900 C.2   175  HIS175      0.2291
     42  O         31.9800   47.2900  195.0200 O.2   175  HIS175     -0.2864
     43  CB        29.3000   47.6900  195.9900 C.3   175  HIS175      0.0771
     44  CG        27.9100   47.2400  195.5700 C.ar  175  HIS175      0.0820
     45  ND1       27.3000   47.6000  194.3800 N.ar  175  HIS175     -0.2267
     46  CD2       27.0800   46.3800  196.2800 C.ar  175  HIS175      0.1154
     47  CE1       26.0900   46.9800  194.4000 C.ar  175  HIS175      0.1986
     48  NE2       25.9500   46.2700  195.4700 N.ar  175  HIS175     -0.2212
     49  N         31.8000   42.6200  194.5100 N.3   178  PHE178     -0.1227
     50  CA        30.9000   42.2400  193.4600 C.3   178  PHE178      0.1736
     51  C         30.8900   43.4100  192.5300 C.2   178  PHE178      0.2595
     52  O         30.4900   44.5200  192.9000 O.2   178  PHE178     -0.2718
     53  CB        29.5600   42.0100  194.0300 C.3   178  PHE178      0.0547
     54  CG        29.5100   40.8000  194.9300 C.ar  178  PHE178     -0.0202
     55  CD1       30.3000   39.6900  194.7000 C.ar  178  PHE178     -0.0042
     56  CD2       28.6400   40.8100  195.9900 C.ar  178  PHE178     -0.0042
     57  CE1       30.1900   38.6000  195.5300 C.ar  178  PHE178     -0.0003
     58  CE2       28.5300   39.7100  196.8100 C.ar  178  PHE178     -0.0003
     59  CZ        29.3100   38.6100  196.5800 C.ar  178  PHE178     -0.0000
     60  N         31.4800   43.2000  191.3700 N.am  179  LYS179     -0.1966
     61  CA        31.5000   44.2200  190.3400 C.3   179  LYS179      0.1728
     62  C         31.4800   43.4300  189.0500 C.2   179  LYS179      0.2616
     63  O         32.5500   43.2000  188.4500 O.2   179  LYS179     -0.2715
     64  CB        32.7700   45.0900  190.3200 C.3   179  LYS179      0.0311
     65  CG        33.0800   46.1600  191.3700 C.3   179  LYS179      0.0038
     66  CD        34.0200   47.2000  190.7300 C.3   179  LYS179      0.0206
     67  CE        34.6600   48.2100  191.6900 C.3   179  LYS179      0.1093
     68  NZ        35.3800   49.2200  190.9400 N.3   179  LYS179     -0.1314
     69  N         30.3300   42.9200  188.6100 N.am  180  THR180     -0.1951
     70  CA        30.2700   42.1700  187.3800 C.3   180  THR180      0.1897
     71  C         30.6100   43.1000  186.2400 C.2   180  THR180      0.2313
     72  O         30.1300   44.2300  186.1400 O.2   180  THR180     -0.2863
     73  CB        28.8800   41.5900  187.2300 C.3   180  THR180      0.1794
     74  OG1       28.7000   40.8100  188.3900 O.3   180  THR180     -0.2208
     75  CG2       28.6900   40.7200  186.0000 C.3   180  THR180      0.0378
     76  N         24.6000   56.8500  192.7100 N.3   262  LEU262     -0.1231
     77  CA        23.3100   56.1600  192.6000 C.3   262  LEU262      0.1693
     78  C         22.4200   56.5400  193.7900 C.2   262  LEU262      0.2591
     79  O         21.2400   56.8900  193.6200 O.2   262  LEU262     -0.2718
     80  CB        23.5500   54.6500  192.5400 C.3   262  LEU262      0.0284
     81  CG        22.2600   53.8000  192.5300 C.3   262  LEU262      0.0019
     82  CD1       21.2500   54.2300  191.4700 C.3   262  LEU262      0.0001
     83  CD2       22.5300   52.3200  192.2600 C.3   262  LEU262      0.0001
     84  N         22.9800   56.4800  195.0000 N.am  263  LEU263     -0.1980
     85  CA        22.2200   56.8500  196.2200 C.3   263  LEU263      0.1596
     86  C         23.0500   57.5300  197.2900 C.2   263  LEU263      0.2287
     87  O         24.2800   57.3900  197.3400 O.2   263  LEU263     -0.2864
     88  CB        21.6900   55.6500  197.0200 C.3   263  LEU263      0.0297
     89  CG        21.1000   54.5100  196.2100 C.3   263  LEU263      0.0022
     90  CD1       22.1500   53.4700  195.8100 C.3   263  LEU263      0.0001
     91  CD2       20.0300   53.7300  196.9900 C.3   263  LEU263      0.0001
     92  N         27.6400   35.8000  194.7000 N.3   350  ASN350     -0.1240
     93  CA        27.0800   37.0200  194.1800 C.3   350  ASN350      0.1653
     94  C         25.5700   36.8800  194.1000 C.2   350  ASN350      0.2266
     95  O         24.8800   37.7800  194.5700 O.2   350  ASN350     -0.2867
     96  CB        27.7000   37.2500  192.8400 C.3   350  ASN350      0.1155
     97  CG        27.1400   38.4400  192.1200 C.2   350  ASN350      0.2627
     98  OD1       25.9800   38.4400  191.7600 O.2   350  ASN350     -0.2716
     99  ND2       27.8900   39.4500  191.8000 N.am  350  ASN350     -0.0877
    100  N         23.9600   37.2200  197.6000 N.3   353  TYR353     -0.1227
    101  CA        23.9800   38.5100  198.2500 C.3   353  TYR353      0.1736
    102  C         23.1000   39.4400  197.4800 C.2   353  TYR353      0.2595
    103  O         23.1200   40.6300  197.7300 O.2   353  TYR353     -0.2718
    104  CB        25.3800   39.0600  198.3000 C.3   353  TYR353      0.0548
    105  CG        25.8600   39.3200  199.7200 C.ar  353  TYR353     -0.0200
    106  CD1       25.5700   40.4900  200.4000 C.ar  353  TYR353     -0.0009
    107  CD2       26.6600   38.3900  200.3400 C.ar  353  TYR353     -0.0009
    108  CE1       26.0600   40.7300  201.6600 C.ar  353  TYR353      0.0417
    109  CE2       27.1500   38.6200  201.6100 C.ar  353  TYR353      0.0417
    110  CZ        26.8500   39.7800  202.2500 C.ar  353  TYR353      0.1957
    111  OH        27.3600   39.9900  203.5100 O.3   353  TYR353     -0.2866
    112  N         22.2700   38.9900  196.5500 N.am  354  HIS354     -0.1961
    113  CA        21.3300   39.8400  195.8500 C.3   354  HIS354      0.1787
    114  C         20.1500   40.2400  196.6900 C.2   354  HIS354      0.2620
    115  O         19.0200   40.3400  196.1900 O.2   354  HIS354     -0.2715
    116  CB        20.7900   39.1500  194.6600 C.3   354  HIS354      0.0785
    117  CG        21.6500   39.6900  193.6000 C.ar  354  HIS354      0.0821
    118  ND1       22.8200   39.1000  193.1800 N.ar  354  HIS354     -0.2267
    119  CD2       21.3500   40.8500  192.9200 C.ar  354  HIS354      0.1154
    120  CE1       23.2100   39.9000  192.1900 C.ar  354  HIS354      0.1986
    121  NE2       22.4000   40.9000  192.0200 N.ar  354  HIS354     -0.2212
    122  N         20.3700   40.5700  197.9500 N.am  355  TRP355     -0.1960
    123  CA        19.2500   40.7600  198.7900 C.3   355  TRP355      0.1771
    124  C         18.7100   42.1900  199.0100 C.2   355  TRP355      0.2619
    125  O         18.6900   42.8600  200.0300 O.2   355  TRP355     -0.2715
    126  CB        19.6500   39.9300  200.0400 C.3   355  TRP355      0.0590
    127  CG        20.7600   40.2300  201.0200 C.ar  355  TRP355      0.0006
    128  CD1       21.0600   41.5000  201.4200 C.ar  355  TRP355      0.0946
    129  CD2       21.4400   39.3000  201.7500 C.ar  355  TRP355      0.0152
    130  NE1       21.9200   41.3800  202.4100 N.ar  355  TRP355     -0.2442
    131  CE2       22.1700   40.1000  202.6300 C.ar  355  TRP355      0.0810
    132  CE3       21.5700   37.9500  201.8100 C.ar  355  TRP355      0.0012
    133  CZ2       23.0100   39.6400  203.6000 C.ar  355  TRP355      0.0191
    134  CZ3       22.4100   37.4600  202.7900 C.ar  355  TRP355      0.0001
    135  CH2       23.1300   38.2800  203.6600 C.ar  355  TRP355      0.0015
    136  N         18.0400   42.4800  197.9000 N.am  356  HIS356     -0.1973
    137  CA        17.2700   43.6900  197.6900 C.3   356  HIS356      0.1656
    138  C         15.9800   43.8200  198.4900 C.2   356  HIS356      0.2291
    139  O         15.5500   44.9600  198.6300 O.2   356  HIS356     -0.2864
    140  CB        16.9500   43.7900  196.2300 C.3   356  HIS356      0.0771
    141  CG        18.1900   43.9800  195.3800 C.ar  356  HIS356      0.0820
    142  ND1       18.9800   42.9500  194.8800 N.ar  356  HIS356     -0.2267
    143  CD2       18.7300   45.2300  195.0500 C.ar  356  HIS356      0.1154
    144  CE1       20.0000   43.6100  194.2900 C.ar  356  HIS356      0.1986
    145  NE2       19.9000   44.9100  194.3600 N.ar  356  HIS356     -0.2212
    146  N         15.6500   44.1900  201.4900 N.3   358  LEU358     -0.1231
    147  CA        15.9200   45.0800  202.5900 C.3   358  LEU358      0.1693
    148  C         15.4400   46.4800  202.2900 C.2   358  LEU358      0.2591
    149  O         15.0000   47.1800  203.2000 O.2   358  LEU358     -0.2718
    150  CB        17.4100   45.1400  202.8800 C.3   358  LEU358      0.0284
    151  CG        18.1200   43.9600  203.4800 C.3   358  LEU358      0.0019
    152  CD1       19.5700   44.2900  203.5900 C.3   358  LEU358      0.0001
    153  CD2       17.6300   43.6700  204.8800 C.3   358  LEU358      0.0001
    154  N         15.4800   46.8800  201.0100 N.am  359  MET359     -0.1979
    155  CA        15.1200   48.2300  200.6600 C.3   359  MET359      0.1605
    156  C         13.6500   48.4500  200.9200 C.2   359  MET359      0.2287
    157  O         12.8700   47.5600  200.6200 O.2   359  MET359     -0.2864
    158  CB        15.4100   48.5200  199.2100 C.3   359  MET359      0.0413
    159  CG        16.8800   48.5500  198.9400 C.3   359  MET359      0.0598
    160  SD        17.8700   49.3700  200.2200 S.3   359  MET359     -0.1393
    161  CE        17.5500   51.0400  199.8000 C.3   359  MET359      0.0692
    162  N         11.6100   56.7700  196.1400 N.3   372  TYR372     -0.1241
    163  CA        12.7800   56.2900  195.4200 C.3   372  TYR372      0.1605
    164  C         13.1200   57.3100  194.3600 C.2   372  TYR372      0.2264
    165  O         14.3000   57.6000  194.2100 O.2   372  TYR372     -0.2867
    166  CB        12.5500   55.0100  194.6900 C.3   372  TYR372      0.0534
    167  CG        12.6300   53.8300  195.6100 C.ar  372  TYR372     -0.0201
    168  CD1       11.6400   53.5900  196.5400 C.ar  372  TYR372     -0.0009
    169  CD2       13.7000   53.0000  195.4800 C.ar  372  TYR372     -0.0009
    170  CE1       11.7300   52.4900  197.3400 C.ar  372  TYR372      0.0417
    171  CE2       13.7800   51.9000  196.2700 C.ar  372  TYR372      0.0417
    172  CZ        12.8100   51.6500  197.2000 C.ar  372  TYR372      0.1957
    173  OH        12.9300   50.5300  197.9800 O.3   372  TYR372     -0.2866
    174  N         17.0400   58.1200  194.8800 N.3   376  LEU376     -0.1245
    175  CA        18.0300   57.7000  193.9200 C.3   376  LEU376      0.1561
    176  C         18.4300   58.8900  193.0800 C.2   376  LEU376      0.2260
    177  O         17.6000   59.6700  192.6200 O.2   376  LEU376     -0.2867
    178  CB        17.4800   56.5900  193.0300 C.3   376  LEU376      0.0270
    179  CG        16.7500   55.4100  193.7000 C.3   376  LEU376      0.0019
    180  CD1       16.4500   54.3800  192.6500 C.3   376  LEU376      0.0001
    181  CD2       17.6000   54.7900  194.7900 C.3   376  LEU376      0.0001
    182  N         12.7900   48.1600  192.4100 N.3   412  ILE412     -0.1245
    183  CA        14.0000   47.4300  192.1500 C.3   412  ILE412      0.1561
    184  C         13.6700   45.9900  191.7500 C.2   412  ILE412      0.2260
    185  O         14.5800   45.2400  191.4600 O.2   412  ILE412     -0.2867
    186  CB        14.9000   47.5000  193.4200 C.3   412  ILE412      0.0252
    187  CG1       14.2600   46.9100  194.6500 C.3   412  ILE412      0.0019
    188  CG2       15.1300   48.9600  193.7200 C.3   412  ILE412      0.0019
    189  CD1       15.1400   46.9700  195.9000 C.3   412  ILE412      0.0001
    190  N         12.9000   44.5700  189.0800 N.3   414  HIS414     -0.1226
    191  CA        13.5300   44.2100  187.8300 C.3   414  HIS414      0.1752
    192  C         14.8800   43.5500  188.0300 C.2   414  HIS414      0.2595
    193  O         15.2300   42.6300  187.2900 O.2   414  HIS414     -0.2718
    194  CB        13.7500   45.4300  186.9600 C.3   414  HIS414      0.0759
    195  CG        14.7800   46.4300  187.4300 C.ar  414  HIS414      0.0818
    196  ND1       14.6600   47.2800  188.5400 N.ar  414  HIS414     -0.2268
    197  CD2       15.9800   46.6400  186.7500 C.ar  414  HIS414      0.1154
    198  CE1       15.8000   48.0100  188.5200 C.ar  414  HIS414      0.1986
    199  NE2       16.5600   47.6700  187.5100 N.ar  414  HIS414     -0.2212
    200  N         15.6100   43.9800  189.0600 N.am  415  VAL415     -0.1980
    201  CA        16.9300   43.4400  189.3600 C.3   415  VAL415      0.1595
    202  C         16.8200   41.9500  189.6200 C.2   415  VAL415      0.2287
    203  O         17.4600   41.1500  188.9400 O.2   415  VAL415     -0.2864
    204  CB        17.5000   44.1600  190.5900 C.3   415  VAL415      0.0276
    205  CG1       18.8700   43.6400  190.9200 C.3   415  VAL415      0.0022
    206  CG2       17.6200   45.6200  190.2800 C.3   415  VAL415      0.0022
    207  N         16.6200   40.1700  186.5200 N.3   418  ASP418     -0.1225
    208  CA        17.9000   39.9800  185.8500 C.3   418  ASP418      0.1805
    209  C         18.7600   38.9200  186.5100 C.2   418  ASP418      0.2597
    210  O         19.5000   38.2100  185.8300 O.2   418  ASP418     -0.2718
    211  CB        18.7200   41.2500  185.8300 C.3   418  ASP418      0.1424
    212  CG        18.0800   42.4100  185.0800 C.2   418  ASP418      0.3668
    213  OD1       17.7300   42.2700  183.9000 O.co2 418  ASP418     -0.2456
    214  OD2       17.9400   43.4800  185.6800 O.co2 418  ASP418     -0.2456
    215  N         18.6600   38.7800  187.8400 N.am  419  VAL419     -0.1980
    216  CA        19.3900   37.7800  188.5900 C.3   419  VAL419      0.1595
    217  C         19.0100   36.4000  188.1400 C.2   419  VAL419      0.2287
    218  O         19.9000   35.6100  187.8200 O.2   419  VAL419     -0.2864
    219  CB        19.0900   37.8900  190.0600 C.3   419  VAL419      0.0276
    220  CG1       19.7500   36.8200  190.8800 C.3   419  VAL419      0.0022
    221  CG2       19.6400   39.2200  190.4800 C.3   419  VAL419      0.0022
    222  N         20.4600   35.7000  184.9000 N.3   422  GLU422     -0.1245
    223  CA        21.8900   35.4800  184.9400 C.3   422  GLU422      0.1567
    224  C         22.0800   34.0700  185.4500 C.2   422  GLU422      0.2260
    225  O         22.8900   33.3800  184.8400 O.2   422  GLU422     -0.2867
    226  CB        22.4800   36.5000  185.8500 C.3   422  GLU422      0.0388
    227  CG        23.9400   36.7700  185.5600 C.3   422  GLU422      0.1160
    228  CD        24.5000   37.8500  186.4900 C.2   422  GLU422      0.3649
    229  OE1       24.2600   39.0300  186.2000 O.co2 422  GLU422     -0.2457
    230  OE2       25.1600   37.4900  187.4900 O.co2 422  GLU422     -0.2457
@<TRIPOS>BOND
     1   213   212   ar
     2   225   224    2
     3   222   223    1
     4   223   224    1
     5   223   226    1
     6   212   214   ar
     7   212   211    1
     8   227   226    1
     9   227   228    1
    10   211   208    1
    11   210   209    2
    12   208   209    1
    13   208   207    1
    14    75    73    1
    15    72    71    2
    16   229   228   ar
    17    71    70    1
    18   228   230   ar
    19   209   215   am
    20   197   195   ar
    21   197   199   ar
    22   194   195    1
    23   194   191    1
    24    73    70    1
    25    73    74    1
    26   193   192    2
    27    70    69    1
    28   195   196   ar
    29   199   198   ar
    30   218   217    2
    31   191   192    1
    32   191   190    1
    33   215   216    1
    34   192   200   am
    35   217   216    1
    36    63    62    2
    37   198   196   ar
    38   216   219    1
    39     8    10   ar
    40     8     6   ar
    41    69    62   am
    42     4     3    2
    43    10    11   ar
    44     1     2    1
    45   203   202    2
    46    62    61    1
    47   200   201    1
    48   201   202    1
    49   201   204    1
    50     5     6    1
    51     5     2    1
    52     6     7   ar
    53     3     2    1
    54    11    12    1
    55    11     9   ar
    56   219   221    1
    57   219   220    1
    58   206   204    1
    59    64    61    1
    60    64    65    1
    61    61    60    1
    62   204   205    1
    63    66    65    1
    64    66    67    1
    65     7     9   ar
    66    68    67    1
    67    60    51   am
    68   185   184    2
    69    82    81    1
    70   184   183    1
    71    98    97    2
    72    99    97   am
    73   121   120   ar
    74   121   119   ar
    75    97    96    1
    76   183   182    1
    77   183   186    1
    78   120   118   ar
    79    83    81    1
    80    81    80    1
    81    51    52    2
    82    51    50    1
    83    80    77    1
    84    77    76    1
    85    77    78    1
    86   177   176    2
    87   180   179    1
    88    96    93    1
    89   119   117   ar
    90   178   179    1
    91   178   175    1
    92   176   175    1
    93   118   117   ar
    94   186   188    1
    95   186   187    1
    96    50    53    1
    97    50    49    1
    98   117   116    1
    99    79    78    2
   100   179   181    1
   101    78    84   am
   102   175   174    1
   103    53    54    1
   104    94    93    1
   105    94    95    2
   106    93    92    1
   107   165   164    2
   108   144   145   ar
   109   144   142   ar
   110   164   163    1
   111   145   143   ar
   112    45    47   ar
   113    45    44   ar
   114    47    48   ar
   115   187   189    1
   116   116   113    1
   117   166   163    1
   118   166   167    1
   119    55    54   ar
   120    55    57   ar
   121   142   141   ar
   122    54    56   ar
   123    84    85    1
   124    42    41    2
   125   143   141   ar
   126   141   140    1
   127   163   162    1
   128    48    46   ar
   129   169   167   ar
   130   169   171   ar
   131    57    59   ar
   132    44    43    1
   133    44    46   ar
   134   167   168   ar
   135    90    89    1
   136   113   112    1
   137   113   114    1
   138    43    40    1
   139    41    40    1
   140    56    58   ar
   141    40    39    1
   142   115   114    2
   143    89    91    1
   144    89    88    1
   145    85    88    1
   146    85    86    1
   147   140   137    1
   148   171   172   ar
   149   168   170   ar
   150   112   102   am
   151    59    58   ar
   152    30    29    2
   153   114   122   am
   154    35    34    2
   155   172   170   ar
   156   172   173    1
   157    86    87    2
   158    39    34   am
   159   102   103    2
   160   102   101    1
   161   100   101    1
   162   137   136    1
   163   137   138    1
   164    34    33    1
   165    29    28    1
   166    29    31   am
   167   136   124   am
   168    38    36    1
   169   122   123    1
   170    28    27    1
   171   101   104    1
   172   104   105    1
   173   138   139    2
   174   123   124    1
   175   123   126    1
   176   159   158    1
   177   159   160    1
   178    26    25    2
   179   124   125    2
   180    33    36    1
   181    33    32    1
   182    36    37    1
   183   158   155    1
   184   105   107   ar
   185   105   106   ar
   186    27    24    1
   187    25    24    1
   188   161   160    1
   189   126   127    1
   190    24    23    1
   191   107   109   ar
   192   106   108   ar
   193   157   156    2
   194   155   156    1
   195   155   154    1
   196   154   148   am
   197   127   128   ar
   198   127   129   ar
   199    21    20    2
   200   128   130   ar
   201    23    20   am
   202   146   147    1
   203   109   110   ar
   204   108   110   ar
   205   129   132   ar
   206   129   131   ar
   207   132   134   ar
   208    20    19    1
   209   110   111    1
   210   148   147    1
   211   148   149    2
   212   130   131   ar
   213   147   150    1
   214   131   133   ar
   215   134   135   ar
   216   150   151    1
   217    16    15    2
   218    19    22    1
   219    19    18    1
   220   151   152    1
   221   151   153    1
   222   133   135   ar
   223    15    14    1
   224    17    14    1
   225    14    13    1
