@<TRIPOS>MOLECULE
tmp/1prmA00.pdb
 141 142 0 0 0
SMALL
GASTEIGER

@<TRIPOS>ATOM
      1  N         11.6550   20.6370    4.1630 N.3     6  TYR6       -0.1227
      2  CA        12.1330   19.7870    5.2870 C.3     6  TYR6        0.1736
      3  C         13.6520   19.6300    5.2050 C.2     6  TYR6        0.2595
      4  O         14.2410   19.7570    4.1500 O.2     6  TYR6       -0.2718
      5  CB        11.4670   18.4220    5.1820 C.3     6  TYR6        0.0548
      6  CG         9.9560   18.6250    5.1340 C.ar    6  TYR6       -0.0200
      7  CD1        9.3420   19.0420    3.9730 C.ar    6  TYR6       -0.0009
      8  CD2        9.1910   18.4110    6.2560 C.ar    6  TYR6       -0.0009
      9  CE1        7.9790   19.2400    3.9340 C.ar    6  TYR6        0.0417
     10  CE2        7.8250   18.6060    6.2210 C.ar    6  TYR6        0.0417
     11  CZ         7.2080   19.0230    5.0580 C.ar    6  TYR6        0.1957
     12  OH         5.8430   19.2190    5.0210 O.3     6  TYR6       -0.2866
     13  N         14.2920   19.3550    6.3080 N.am    7  ASP7       -0.1960
     14  CA        15.7710   19.1910    6.2880 C.3     7  ASP7        0.1840
     15  C         16.1250   17.8400    5.6620 C.2     7  ASP7        0.2622
     16  O         16.1340   16.8200    6.3220 O.2     7  ASP7       -0.2715
     17  CB        16.3140   19.2510    7.7180 C.3     7  ASP7        0.1450
     18  CG        15.3760   18.4940    8.6610 C.2     7  ASP7        0.3671
     19  OD1       15.0210   17.3720    8.3380 O.co2   7  ASP7       -0.2456
     20  OD2       15.0280   19.0490    9.6910 O.co2   7  ASP7       -0.2456
     21  N         16.4160   17.8270    4.3900 N.am    8  TYR8       -0.1960
     22  CA        16.7690   16.5470    3.7140 C.3     8  TYR8        0.1771
     23  C         18.1250   16.0560    4.2270 C.2     8  TYR8        0.2619
     24  O         19.1350   16.7130    4.0660 O.2     8  TYR8       -0.2715
     25  CB        16.8430   16.7800    2.2050 C.3     8  TYR8        0.0574
     26  CG        17.3880   15.5300    1.5130 C.ar    8  TYR8       -0.0198
     27  CD1       17.0780   14.2720    1.9880 C.ar    8  TYR8       -0.0009
     28  CD2       18.1940   15.6430    0.3990 C.ar    8  TYR8       -0.0009
     29  CE1       17.5670   13.1450    1.3580 C.ar    8  TYR8        0.0417
     30  CE2       18.6820   14.5170   -0.2310 C.ar    8  TYR8        0.0417
     31  CZ        18.3730   13.2590    0.2430 C.ar    8  TYR8        0.1957
     32  OH        18.8620   12.1330   -0.3860 O.3     8  TYR8       -0.2866
     33  N         18.1550   14.9050    4.8420 N.am    9  GLU9       -0.1977
     34  CA        19.4450   14.3720    5.3650 C.3     9  GLU9        0.1602
     35  C         19.9160   13.2110    4.4850 C.2     9  GLU9        0.2287
     36  O         19.7980   12.0580    4.8490 O.2     9  GLU9       -0.2864
     37  CB        19.2440   13.8760    6.7980 C.3     9  GLU9        0.0415
     38  CG        20.5670   13.9650    7.5610 C.3     9  GLU9        0.1163
     39  CD        20.2920   13.9020    9.0650 C.2     9  GLU9        0.3649
     40  OE1       19.7260   14.8500    9.5840 O.co2   9  GLU9       -0.2457
     41  OE2       20.6510   12.9070    9.6720 O.co2   9  GLU9       -0.2457
     42  N         22.1160   10.3160    2.6840 N.3    11  ARG11      -0.1231
     43  CA        23.0090    9.3590    3.3990 C.3    11  ARG11       0.1694
     44  C         24.1380    8.9030    2.4680 C.2    11  ARG11       0.2592
     45  O         25.1140    8.3230    2.9030 O.2    11  ARG11      -0.2718
     46  CB        22.1960    8.1430    3.8450 C.3    11  ARG11       0.0321
     47  CG        21.2770    8.5410    5.0000 C.3    11  ARG11       0.0489
     48  CD        19.9280    7.8330    4.8470 C.3    11  ARG11       0.2205
     49  NE        19.7630    6.8370    5.9450 N.pl3  11  ARG11      -0.0865
     50  CZ        18.8750    5.8850    5.8390 C.cat  11  ARG11       0.5346
     51  NH1       18.1300    5.7980    4.7700 N.pl3  11  ARG11       0.1354
     52  NH2       18.7330    5.0170    6.8020 N.pl3  11  ARG11       0.1354
     53  N         24.0190    9.1580    1.1910 N.am   12  THR12      -0.1953
     54  CA        25.0900    8.7350    0.2440 C.3    12  THR12       0.1897
     55  C         25.8240    9.9680   -0.2850 C.2    12  THR12       0.2313
     56  O         25.4410   11.0910   -0.0220 O.2    12  THR12      -0.2863
     57  CB        24.4700    7.9700   -0.9300 C.3    12  THR12       0.1794
     58  OG1       25.2710    8.1550   -2.0880 O.3    12  THR12      -0.2208
     59  CG2       23.0570    8.4940   -1.1970 C.3    12  THR12       0.0378
     60  N         25.8300   10.9690   -3.1930 N.3    14  THR14      -0.1203
     61  CA        25.2160   11.3130   -4.5060 C.3    14  THR14       0.1994
     62  C         24.2800   12.5110   -4.3350 C.2    14  THR14       0.2617
     63  O         24.2620   13.4180   -5.1420 O.2    14  THR14      -0.2717
     64  CB        24.4160   10.1140   -5.0220 C.3    14  THR14       0.1784
     65  OG1       25.1770    8.9280   -4.8430 O.3    14  THR14      -0.2211
     66  CG2       24.1040   10.3070   -6.5070 C.3    14  THR14       0.0376
     67  N         23.5050   12.5210   -3.2860 N.am   15  ASP15      -0.1973
     68  CA        22.5690   13.6600   -3.0600 C.3    15  ASP15       0.1709
     69  C         23.1210   14.5580   -1.9510 C.2    15  ASP15       0.2293
     70  O         23.7180   14.0920   -1.0010 O.2    15  ASP15      -0.2864
     71  CB        21.1920   13.1270   -2.6380 C.3    15  ASP15       0.1436
     72  CG        21.0300   11.6720   -3.0920 C.2    15  ASP15       0.3671
     73  OD1       21.6270   10.8080   -2.4700 O.co2  15  ASP15      -0.2456
     74  OD2       20.3120   11.4480   -4.0520 O.co2  15  ASP15      -0.2456
     75  N          9.9400   10.9910   -8.4530 N.3    33  ASP33      -0.1225
     76  CA         9.7370   11.5810   -7.0990 C.3    33  ASP33       0.1805
     77  C         11.0550   12.1540   -6.5790 C.2    33  ASP33       0.2597
     78  O         11.1180   12.7160   -5.5030 O.2    33  ASP33      -0.2718
     79  CB         9.2460   10.4930   -6.1440 C.3    33  ASP33       0.1424
     80  CG         7.7400   10.3000   -6.3250 C.2    33  ASP33       0.3668
     81  OD1        7.2760   10.4340   -7.4460 O.co2  33  ASP33      -0.2456
     82  OD2        7.0760   10.0210   -5.3410 O.co2  33  ASP33      -0.2456
     83  N         12.1100   12.0110   -7.3280 N.am   34  TRP34      -0.1976
     84  CA        13.4200   12.5490   -6.8750 C.3    34  TRP34       0.1640
     85  C         13.9510   13.5150   -7.9320 C.2    34  TRP34       0.2290
     86  O         14.2830   13.1270   -9.0350 O.2    34  TRP34      -0.2864
     87  CB        14.4050   11.3960   -6.6770 C.3    34  TRP34       0.0576
     88  CG        14.1920   10.7800   -5.2920 C.ar   34  TRP34       0.0006
     89  CD1       13.3980    9.7260   -5.0310 C.ar   34  TRP34       0.0946
     90  CD2       14.7620   11.2080   -4.1650 C.ar   34  TRP34       0.0152
     91  NE1       13.5250    9.5540   -3.7140 N.ar   34  TRP34      -0.2442
     92  CE2       14.3540   10.4330   -3.0960 C.ar   34  TRP34       0.0810
     93  CE3       15.6400   12.2550   -3.9590 C.ar   34  TRP34       0.0012
     94  CZ2       14.8220   10.7030   -1.8260 C.ar   34  TRP34       0.0191
     95  CZ3       16.1070   12.5240   -2.6870 C.ar   34  TRP34       0.0001
     96  CH2       15.6980   11.7480   -1.6210 C.ar   34  TRP34       0.0015
     97  N         20.7070   15.0430   -5.8850 N.3    47  TYR47      -0.1241
     98  CA        19.2710   14.7210   -6.1110 C.3    47  TYR47       0.1605
     99  C         18.4660   15.0600   -4.8540 C.2    47  TYR47       0.2264
    100  O         18.5740   14.3950   -3.8430 O.2    47  TYR47      -0.2867
    101  CB        19.1260   13.2260   -6.3970 C.3    47  TYR47       0.0534
    102  CG        19.9530   12.8350   -7.6230 C.ar   47  TYR47      -0.0201
    103  CD1       19.5550   13.2080   -8.8920 C.ar   47  TYR47      -0.0009
    104  CD2       21.0980   12.0790   -7.4790 C.ar   47  TYR47      -0.0009
    105  CE1       20.2890   12.8280   -9.9960 C.ar   47  TYR47       0.0417
    106  CE2       21.8320   11.6990   -8.5830 C.ar   47  TYR47       0.0417
    107  CZ        21.4330   12.0700   -9.8510 C.ar   47  TYR47       0.1957
    108  OH        22.1660   11.6890  -10.9550 O.3    47  TYR47      -0.2866
    109  N         14.9840   15.3020   -2.6800 N.2    49  PRO49      -0.2571
    110  CA        13.6700   14.6360   -2.6210 C.3    49  PRO49       0.2026
    111  C         12.5680   15.6100   -3.0470 C.2    49  PRO49       0.2684
    112  O         12.6180   16.7850   -2.7450 O.2    49  PRO49      -0.2709
    113  CB        13.4980   14.2330   -1.1510 C.2    49  PRO49       0.0085
    114  CG        14.7540   14.7150   -0.3800 C.2    49  PRO49       0.0180
    115  CD        15.6940   15.3920   -1.3910 C.2    49  PRO49       0.0938
    116  N         11.5740   15.1310   -3.7440 N.am   50  SER50      -0.1931
    117  CA        10.4720   16.0290   -4.1880 C.3    50  SER50       0.2055
    118  C          9.4920   16.2640   -3.0360 C.2    50  SER50       0.2643
    119  O          8.5440   17.0140   -3.1610 O.2    50  SER50      -0.2714
    120  CB         9.7330   15.3790   -5.3590 C.3    50  SER50       0.2130
    121  OG         8.5630   14.7320   -4.8810 O.3    50  SER50      -0.2179
    122  N          9.7080   15.6330   -1.9150 N.am   51  ASN51      -0.1957
    123  CA         8.7810   15.8300   -0.7640 C.3    51  ASN51       0.1819
    124  C          9.4460   16.7260    0.2830 C.2    51  ASN51       0.2621
    125  O          8.8370   17.1060    1.2640 O.2    51  ASN51      -0.2715
    126  CB         8.4480   14.4740   -0.1390 C.3    51  ASN51       0.1195
    127  CG         7.0890   13.9970   -0.6570 C.2    51  ASN51       0.2630
    128  OD1        6.5520   14.5580   -1.5920 O.2    51  ASN51      -0.2716
    129  ND2        6.5070   12.9780   -0.0860 N.am   51  ASN51      -0.0877
    130  N         10.6890   17.0700    0.0840 N.am   52  TYR52      -0.1974
    131  CA        11.3870   17.9410    1.0700 C.3    52  TYR52       0.1639
    132  C         11.5910   19.3360    0.4740 C.2    52  TYR52       0.2290
    133  O         12.3590   20.1280    0.9840 O.2    52  TYR52      -0.2864
    134  CB        12.7510   17.3350    1.4110 C.3    52  TYR52       0.0560
    135  CG        12.5710   16.0890    2.2860 C.ar   52  TYR52      -0.0198
    136  CD1       11.3120   15.6590    2.6580 C.ar   52  TYR52      -0.0009
    137  CD2       13.6720   15.3760    2.7140 C.ar   52  TYR52      -0.0009
    138  CE1       11.1600   14.5350    3.4450 C.ar   52  TYR52       0.0417
    139  CE2       13.5190   14.2540    3.5000 C.ar   52  TYR52       0.0417
    140  CZ        12.2630   13.8240    3.8720 C.ar   52  TYR52       0.1957
    141  OH        12.1130   12.7020    4.6590 O.3    52  TYR52      -0.2866
@<TRIPOS>BOND
     1   108   107    1
     2   105   107   ar
     3   105   103   ar
     4   107   106   ar
     5    86    85    2
     6   103   102   ar
     7   106   104   ar
     8    75    76    1
     9    85    84    1
    10   102   104   ar
    11   102   101    1
    12    81    80   ar
    13    83    84    1
    14    83    77   am
    15    76    77    1
    16    76    79    1
    17    84    87    1
    18    87    88    1
    19    77    78    2
    20    66    64    1
    21   101    98    1
    22    80    79    1
    23    80    82   ar
    24    98    97    1
    25    98    99    1
    26   120   121    1
    27   120   117    1
    28    88    89   ar
    29    88    90   ar
    30    63    62    2
    31    89    91   ar
    32    64    65    1
    33    64    61    1
    34    99   100    2
    35    61    62    1
    36    61    60    1
    37    62    67   am
    38   117   116    1
    39   117   118    1
    40    90    93   ar
    41    90    92   ar
    42    74    72   ar
    43    93    95   ar
    44   116   111   am
    45    91    92   ar
    46    67    68    1
    47   119   118    2
    48    92    94   ar
    49    72    71    1
    50    72    73   ar
    51    68    71    1
    52    68    69    1
    53   111   112    2
    54   111   110    1
    55   118   122   am
    56    95    96   ar
    57   109   110    1
    58   109   115    2
    59   110   113    1
    60    58    57    1
    61    69    70    2
    62   122   123    1
    63    94    96   ar
    64   128   127    2
    65   115   114    1
    66    59    57    1
    67   113   114    2
    68    57    54    1
    69   123   126    1
    70   123   124    1
    71   127   126    1
    72   127   129   am
    73    32    31    1
    74    55    56    2
    75    55    54    1
    76    30    31   ar
    77    30    28   ar
    78   130   124   am
    79   130   131    1
    80    31    29   ar
    81    54    53    1
    82   124   125    2
    83    28    26   ar
    84   132   133    2
    85   132   131    1
    86   131   134    1
    87    53    44   am
    88    29    27   ar
    89   134   135    1
    90    26    27   ar
    91    26    25    1
    92    25    22    1
    93   135   136   ar
    94   135   137   ar
    95    44    45    2
    96    44    43    1
    97   136   138   ar
    98    42    43    1
    99   137   139   ar
   100    43    46    1
   101   138   140   ar
   102   139   140   ar
   103    22    23    1
   104    22    21    1
   105    46    47    1
   106   140   141    1
   107     9     7   ar
   108     9    11   ar
   109     7     6   ar
   110    24    23    2
   111     4     3    2
   112     1     2    1
   113    23    33   am
   114    21    15   am
   115    35    36    2
   116    35    34    1
   117    51    50    1
   118    33    34    1
   119    48    47    1
   120    48    49    1
   121    12    11    1
   122    11    10   ar
   123     6     5    1
   124     6     8   ar
   125     5     2    1
   126     3     2    1
   127     3    13   am
   128    34    37    1
   129    15    14    1
   130    15    16    2
   131    50    49    2
   132    50    52    1
   133    10     8   ar
   134    14    13    1
   135    14    17    1
   136    37    38    1
   137    38    39    1
   138    17    18    1
   139    19    18   ar
   140    18    20   ar
   141    39    40   ar
   142    39    41   ar
