@<TRIPOS>MOLECULE
tmp/1proB00.pdb
 112 105 0 0 0
SMALL
GASTEIGER

@<TRIPOS>ATOM
      1  N        -21.5570   19.7210   34.2320 N.3     8  ARG8       -0.1245
      2  CA       -20.9640   19.5770   32.9020 C.3     8  ARG8        0.1563
      3  C        -21.7640   20.2870   31.8070 C.2     8  ARG8        0.2260
      4  O        -22.9790   20.0280   31.7460 O.2     8  ARG8       -0.2867
      5  CB       -20.8610   18.1050   32.5070 C.3     8  ARG8        0.0307
      6  CG       -19.7330   17.3790   33.2110 C.3     8  ARG8        0.0489
      7  CD       -19.6360   15.9620   32.6540 C.3     8  ARG8        0.2205
      8  NE       -18.4410   15.3010   33.1700 N.pl3   8  ARG8       -0.0865
      9  CZ       -17.9760   14.1350   32.6900 C.cat   8  ARG8        0.5346
     10  NH1      -18.5790   13.4700   31.6980 N.pl3   8  ARG8        0.1354
     11  NH2      -16.8730   13.6090   33.2300 N.pl3   8  ARG8        0.1354
     12  N        -20.3480   17.1690   25.1930 N.3    23  LEU23      -0.1245
     13  CA       -19.7200   18.1920   26.0290 C.3    23  LEU23       0.1561
     14  C        -19.1960   19.3830   25.2410 C.2    23  LEU23       0.2260
     15  O        -18.4410   19.2390   24.2630 O.2    23  LEU23      -0.2867
     16  CB       -18.4670   17.7150   26.7700 C.3    23  LEU23       0.0270
     17  CG       -18.3250   17.2250   28.1810 C.3    23  LEU23       0.0019
     18  CD1      -16.8450   16.9230   28.3840 C.3    23  LEU23       0.0001
     19  CD2      -18.8210   18.2330   29.1830 C.3    23  LEU23       0.0001
     20  N        -16.4980   21.6710   25.0260 N.3    25  ASP25      -0.1239
     21  CA       -15.1790   21.5370   25.5820 C.3    25  ASP25       0.1674
     22  C        -14.1910   22.5630   25.0290 C.2    25  ASP25       0.2266
     23  O        -13.5530   22.3460   24.0060 O.2    25  ASP25      -0.2867
     24  CB       -14.7190   20.0730   25.3090 C.3    25  ASP25       0.1410
     25  CG       -13.4670   19.6310   26.0700 C.2    25  ASP25       0.3668
     26  OD1      -12.7280   20.4580   26.5900 O.co2  25  ASP25      -0.2456
     27  OD2      -13.2250   18.4430   26.1600 O.co2  25  ASP25      -0.2456
     28  N        -11.1890   23.0650   26.0560 N.3    27  GLY27      -0.1210
     29  CA        -9.8540   22.5220   26.0820 C.3    27  GLY27       0.1956
     30  C         -9.5420   21.6360   24.8990 C.2    27  GLY27       0.2612
     31  O         -8.3950   21.2510   24.6920 O.2    27  GLY27      -0.2717
     32  N        -10.5430   21.2850   24.0760 N.am   28  ALA28      -0.1965
     33  CA       -10.3720   20.3090   23.0210 C.3    28  ALA28       0.1728
     34  C        -10.1760   21.0850   21.7270 C.2    28  ALA28       0.2616
     35  O        -10.9880   21.9120   21.3480 O.2    28  ALA28      -0.2715
     36  CB       -11.6270   19.4460   22.9040 C.3    28  ALA28       0.0334
     37  N         -9.1050   20.8710   20.9920 N.am   29  ASP29      -0.1957
     38  CA        -8.9700   21.5170   19.6980 C.3    29  ASP29       0.1840
     39  C         -9.9410   20.9870   18.6680 C.2    29  ASP29       0.2622
     40  O        -10.4320   21.7470   17.8450 O.2    29  ASP29      -0.2715
     41  CB        -7.5800   21.3140   19.1410 C.3    29  ASP29       0.1450
     42  CG        -6.4690   21.9510   19.9440 C.2    29  ASP29       0.3671
     43  OD1       -6.6850   22.8560   20.7670 O.co2  29  ASP29      -0.2456
     44  OD2       -5.3580   21.4920   19.7300 O.co2  29  ASP29      -0.2456
     45  N        -10.1850   19.6760   18.7550 N.am   30  ASP30      -0.1971
     46  CA       -10.9710   18.9110   17.8000 C.3    30  ASP30       0.1709
     47  C        -12.3060   18.4360   18.3620 C.2    30  ASP30       0.2293
     48  O        -12.4910   18.4170   19.5800 O.2    30  ASP30      -0.2864
     49  CB       -10.1900   17.6880   17.3730 C.3    30  ASP30       0.1436
     50  CG        -8.7320   17.9380   17.0240 C.2    30  ASP30       0.3671
     51  OD1       -8.4940   18.6280   16.0360 O.co2  30  ASP30      -0.2456
     52  OD2       -7.8550   17.4600   17.7580 O.co2  30  ASP30      -0.2456
     53  N        -14.5690   15.1220   18.8690 N.3    32  VAL32      -0.1245
     54  CA       -14.3820   13.6790   18.7940 C.3    32  VAL32       0.1561
     55  C        -15.5610   12.9910   19.4490 C.2    32  VAL32       0.2260
     56  O        -15.9970   13.3310   20.5430 O.2    32  VAL32      -0.2867
     57  CB       -12.9900   13.2470   19.4300 C.3    32  VAL32       0.0252
     58  CG1      -12.6660   13.9280   20.6870 C.3    32  VAL32       0.0019
     59  CG2      -13.0130   11.7550   19.6750 C.3    32  VAL32       0.0019
     60  N         -4.9990   11.1670   18.2150 N.3    47  ILE47      -0.1231
     61  CA        -5.0080   12.3850   19.0010 C.3    47  ILE47       0.1692
     62  C         -4.4760   11.9970   20.3660 C.2    47  ILE47       0.2593
     63  O         -4.6010   10.8340   20.7980 O.2    47  ILE47      -0.2718
     64  CB        -6.4510   13.0690   19.1540 C.3    47  ILE47       0.0266
     65  CG1       -7.4500   12.3900   20.0080 C.3    47  ILE47       0.0019
     66  CG2       -7.0650   13.0720   17.7570 C.3    47  ILE47       0.0020
     67  CD1       -8.5980   13.4170   20.2270 C.3    47  ILE47       0.0001
     68  N         -3.8470   12.9130   21.0760 N.am   48  GLY48      -0.1942
     69  CA        -3.3150   12.6150   22.4040 C.3    48  GLY48       0.2014
     70  C         -4.1030   13.3500   23.4770 C.2    48  GLY48       0.2639
     71  O         -4.4650   14.5020   23.2840 O.2    48  GLY48      -0.2714
     72  N         -4.3800   12.7690   24.6190 N.am   49  GLY49      -0.1939
     73  CA        -5.1360   13.4890   25.6190 C.3    49  GLY49       0.2014
     74  C         -4.5000   13.2350   26.9450 C.2    49  GLY49       0.2638
     75  O         -3.3020   13.0240   27.0430 O.2    49  GLY49      -0.2714
     76  N         -5.2600   13.2640   28.0260 N.am   50  ILE50      -0.1977
     77  CA        -4.7050   12.8210   29.2690 C.3    50  ILE50       0.1596
     78  C         -4.6880   11.2970   29.1700 C.2    50  ILE50       0.2287
     79  O         -5.5810   10.6470   28.5890 O.2    50  ILE50      -0.2864
     80  CB        -5.6010   13.4080   30.3610 C.3    50  ILE50       0.0276
     81  CG1       -4.7620   14.5860   30.8310 C.3    50  ILE50       0.0022
     82  CG2       -5.9800   12.4990   31.5190 C.3    50  ILE50       0.0022
     83  CD1       -5.3510   15.4440   31.9410 C.3    50  ILE50       0.0001
     84  N        -13.5390    7.4630   22.3970 N.3    80  THR80      -0.1204
     85  CA       -13.5420    8.4710   23.4300 C.3    80  THR80       0.1979
     86  C        -14.5920    8.0190   24.4310 C.2    80  THR80       0.2460
     87  O        -15.5960    7.4830   23.9930 O.2    80  THR80      -0.2732
     88  CB       -13.9010    9.8460   22.8530 C.3    80  THR80       0.1783
     89  OG1      -14.0150   10.7060   23.9810 O.3    80  THR80      -0.2211
     90  CG2      -15.1490    9.8660   22.0210 C.3    80  THR80       0.0376
     91  N        -14.4690    8.2210   25.7450 N.am   81  PRO81      -0.2717
     92  CA       -15.5390    7.9470   26.7110 C.3    81  PRO81       0.1535
     93  C        -16.7720    8.8570   26.6540 C.2    81  PRO81       0.2598
     94  O        -17.8550    8.5070   27.1320 O.2    81  PRO81      -0.2715
     95  CB       -14.8450    8.0210   28.0450 C.3    81  PRO81       0.0310
     96  CG       -13.6420    8.8890   27.8270 C.3    81  PRO81       0.0237
     97  CD       -13.2030    8.5150   26.4320 C.3    81  PRO81       0.0939
     98  N        -16.5650   10.0700   26.1170 N.am   82  VAL82      -0.1978
     99  CA       -17.5450   11.1420   26.1010 C.3    82  VAL82       0.1596
    100  C        -17.4960   11.7840   24.7170 C.2    82  VAL82       0.2287
    101  O        -16.4340   11.8480   24.0930 O.2    82  VAL82      -0.2864
    102  CB       -17.1810   12.2000   27.2210 C.3    82  VAL82       0.0276
    103  CG1      -18.1300   13.3580   27.2180 C.3    82  VAL82       0.0022
    104  CG2      -17.4080   11.6250   28.6070 C.3    82  VAL82       0.0022
    105  N        -17.3040   14.8690   22.5410 N.3    84  ILE84      -0.1245
    106  CA       -16.6600   16.1660   22.7590 C.3    84  ILE84       0.1561
    107  C        -16.8880   17.1130   21.5820 C.2    84  ILE84       0.2260
    108  O        -16.6070   16.7320   20.4340 O.2    84  ILE84      -0.2867
    109  CB       -15.1120   15.8850   23.0020 C.3    84  ILE84       0.0252
    110  CG1      -14.9150   15.2510   24.3770 C.3    84  ILE84       0.0019
    111  CG2      -14.3050   17.1730   22.9120 C.3    84  ILE84       0.0019
    112  CD1      -13.5650   14.5780   24.4540 C.3    84  ILE84       0.0001
@<TRIPOS>BOND
     1    51    50   ar
     2    50    49    1
     3    50    52   ar
     4    49    46    1
     5    66    64    1
     6    46    47    1
     7    46    45    1
     8    40    39    2
     9    60    61    1
    10    47    48    2
    11    39    45   am
    12    39    38    1
    13    54    53    1
    14    54    57    1
    15    54    55    1
    16    61    64    1
    17    61    62    1
    18    41    38    1
    19    41    42    1
    20    64    65    1
    21    57    59    1
    22    57    58    1
    23    55    56    2
    24    38    37    1
    25    44    42   ar
    26    42    43   ar
    27    65    67    1
    28    62    63    2
    29    62    68   am
    30   108   107    2
    31    37    34   am
    32    68    69    1
    33    35    34    2
    34   107   106    1
    35    34    33    1
    36    90    88    1
    37    84    85    1
    38    69    70    1
    39   105   106    1
    40   106   109    1
    41    88    85    1
    42    88    89    1
    43    36    33    1
    44   111   109    1
    45   109   110    1
    46    33    32    1
    47    71    70    2
    48    85    86    1
    49    70    72   am
    50    87    86    2
    51    23    22    2
    52    32    30   am
    53   101   100    2
    54    15    14    2
    55   110   112    1
    56    86    91   am
    57    72    73    1
    58    31    30    2
    59   100    99    1
    60    30    29    1
    61    20    21    1
    62    22    21    1
    63    12    13    1
    64    14    13    1
    65    24    21    1
    66    24    25    1
    67    73    74    1
    68    91    97    1
    69    91    92    1
    70    13    16    1
    71    28    29    1
    72    25    27   ar
    73    25    26   ar
    74    99    98    1
    75    99   102    1
    76    98    93   am
    77    97    96    1
    78    93    92    1
    79    93    94    2
    80    92    95    1
    81    16    17    1
    82    74    75    2
    83    74    76   am
    84   103   102    1
    85   102   104    1
    86    96    95    1
    87    76    77    1
    88    17    18    1
    89    17    19    1
    90    79    78    2
    91    78    77    1
    92    77    80    1
    93    80    81    1
    94    80    82    1
    95    81    83    1
    96    10     9    1
    97     4     3    2
    98     3     2    1
    99     5     2    1
   100     5     6    1
   101     7     8    1
   102     7     6    1
   103     9     8    2
   104     9    11    1
   105     2     1    1
