@<TRIPOS>MOLECULE
tmp/1ps6A00.pdb
 139 130 0 0 0
SMALL
GASTEIGER

@<TRIPOS>ATOM
      1  N          8.4650   -7.3680  -14.1980 N.3   120  VAL120     -0.1245
      2  CA         7.3420   -8.1790  -14.6610 C.3   120  VAL120      0.1561
      3  C          6.0550   -7.3840  -14.4620 C.2   120  VAL120      0.2260
      4  O          6.0010   -6.4660  -13.6390 O.2   120  VAL120     -0.2867
      5  CB         7.2110   -9.5020  -13.8750 C.3   120  VAL120      0.0252
      6  CG1        8.5000  -10.2750  -13.9610 C.3   120  VAL120      0.0019
      7  CG2        6.8530   -9.2250  -12.4210 C.3   120  VAL120      0.0019
      8  N          2.5290   -7.6540  -13.1110 N.3   122  LYS122     -0.1245
      9  CA         1.6690   -8.4590  -12.2560 C.3   122  LYS122      0.1561
     10  C          0.2790   -8.6820  -12.8520 C.2   122  LYS122      0.2260
     11  O         -0.2650   -9.7850  -12.7830 O.2   122  LYS122     -0.2867
     12  CB         1.5670   -7.8030  -10.8720 C.3   122  LYS122      0.0271
     13  CG         2.9280   -7.6870  -10.1670 C.3   122  LYS122      0.0035
     14  CD         2.8200   -7.3980   -8.6590 C.3   122  LYS122      0.0206
     15  CE         2.5150   -5.9330   -8.3520 C.3   122  LYS122      0.1093
     16  NZ         2.6130   -5.6390   -6.8900 N.3   122  LYS122     -0.1314
     17  N          3.9520  -10.4750   -6.8240 N.3   134  GLY134     -0.1210
     18  CA         5.2880   -9.9330   -6.9920 C.3   134  GLY134      0.1956
     19  C          6.3780  -10.9740   -6.8110 C.2   134  GLY134      0.2612
     20  O          6.1270  -12.0860   -6.3240 O.2   134  GLY134     -0.2717
     21  N          7.5970  -10.6180   -7.2020 N.am  135  HIS135     -0.1961
     22  CA         8.7190  -11.5330   -7.0730 C.3   135  HIS135      0.1787
     23  C          8.9120  -11.9770   -5.6340 C.2   135  HIS135      0.2621
     24  O          8.9370  -13.1710   -5.3330 O.2   135  HIS135     -0.2715
     25  CB        10.0210  -10.8770   -7.5420 C.3   135  HIS135      0.0785
     26  CG        10.0990  -10.6560   -9.0190 C.ar  135  HIS135      0.0821
     27  ND1        9.9240   -9.4170   -9.5960 N.ar  135  HIS135     -0.2267
     28  CD2       10.3600  -11.5120  -10.0360 C.ar  135  HIS135      0.1154
     29  CE1       10.0770   -9.5180  -10.9040 C.ar  135  HIS135      0.1986
     30  NE2       10.3420  -10.7800  -11.1970 N.ar  135  HIS135     -0.2212
     31  N          9.0560  -10.9990   -4.7480 N.am  136  THR136     -0.1937
     32  CA         9.2940  -11.2680   -3.3440 C.3   136  THR136      0.2028
     33  C          8.4310  -12.3870   -2.7780 C.2   136  THR136      0.2642
     34  O          8.9450  -13.2950   -2.1210 O.2   136  THR136     -0.2714
     35  CB         9.1050   -9.9910   -2.5130 C.3   136  THR136      0.1808
     36  OG1        9.9860   -8.9730   -3.0170 O.3   136  THR136     -0.2208
     37  CG2        9.4180  -10.2530   -1.0430 C.3   136  THR136      0.0379
     38  N          7.1280  -12.3320   -3.0350 N.am  137  GLU137     -0.1976
     39  CA         6.2330  -13.3650   -2.5290 C.3   137  GLU137      0.1602
     40  C          6.4510  -14.6650   -3.3020 C.2   137  GLU137      0.2287
     41  O          6.4130  -15.7560   -2.7400 O.2   137  GLU137     -0.2864
     42  CB         4.7640  -12.9270   -2.6630 C.3   137  GLU137      0.0415
     43  CG         4.3360  -11.6990   -1.8320 C.3   137  GLU137      0.1163
     44  CD         4.9710  -10.3820   -2.2960 C.2   137  GLU137      0.3649
     45  OE1        5.3770  -10.2810   -3.4780 O.co2 137  GLU137     -0.2457
     46  OE2        5.0430   -9.4380   -1.4710 O.co2 137  GLU137     -0.2457
     47  N         12.1860   -7.3110    2.2860 N.3   150  MET150     -0.1245
     48  CA        12.4460   -6.4800    1.1220 C.3   150  MET150      0.1570
     49  C         13.3390   -5.2940    1.4770 C.2   150  MET150      0.2261
     50  O         13.0480   -4.5430    2.4100 O.2   150  MET150     -0.2867
     51  CB        11.1380   -5.9540    0.5290 C.3   150  MET150      0.0387
     52  CG        11.3400   -5.1180   -0.7380 C.3   150  MET150      0.0595
     53  SD         9.8110   -4.3320   -1.2850 S.3   150  MET150     -0.1393
     54  CE         8.6210   -5.6770   -0.9700 C.3   150  MET150      0.0692
     55  N         15.8840   -1.9280   -0.1560 N.3   152  LEU152     -0.1245
     56  CA        16.2190   -1.0240   -1.2580 C.3   152  LEU152      0.1561
     57  C         17.5680   -0.3990   -0.9040 C.2   152  LEU152      0.2260
     58  O         17.7710    0.0370    0.2190 O.2   152  LEU152     -0.2867
     59  CB        15.1640    0.0720   -1.3980 C.3   152  LEU152      0.0270
     60  CG        14.3340    0.1720   -2.6830 C.3   152  LEU152      0.0019
     61  CD1       15.2160    0.5800   -3.8580 C.3   152  LEU152      0.0001
     62  CD2       13.6390   -1.1650   -2.9310 C.3   152  LEU152      0.0001
     63  N          3.6970   -4.5030    1.0730 N.3   165  HIS165     -0.1241
     64  CA         2.5250   -4.0020    0.3860 C.3   165  HIS165      0.1621
     65  C          1.1790   -4.1940    1.0520 C.2   165  HIS165      0.2264
     66  O          0.2850   -4.8130    0.4860 O.2   165  HIS165     -0.2867
     67  CB         2.5090   -4.5670   -1.0350 C.3   165  HIS165      0.0745
     68  CG         3.7330   -4.2030   -1.8120 C.ar  165  HIS165      0.0817
     69  ND1        4.5400   -5.1430   -2.4200 N.ar  165  HIS165     -0.2268
     70  CD2        4.3310   -3.0080   -2.0160 C.ar  165  HIS165      0.1154
     71  CE1        5.5830   -4.5420   -2.9540 C.ar  165  HIS165      0.1986
     72  NE2        5.4860   -3.2460   -2.7220 N.ar  165  HIS165     -0.2212
     73  N          6.3620    0.5240    4.0100 N.3   265  HIS265     -0.1241
     74  CA         6.6760    0.9120    2.6340 C.3   265  HIS265      0.1621
     75  C          6.9600    2.3920    2.3570 C.2   265  HIS265      0.2264
     76  O          8.1010    2.7700    2.0650 O.2   265  HIS265     -0.2867
     77  CB         5.5500    0.4200    1.7180 C.3   265  HIS265      0.0745
     78  CG         5.9320    0.3370    0.2740 C.ar  265  HIS265      0.0817
     79  ND1        6.0180    1.4440   -0.5400 N.ar  265  HIS265     -0.2268
     80  CD2        6.2620   -0.7260   -0.5010 C.ar  265  HIS265      0.1154
     81  CE1        6.3860    1.0700   -1.7540 C.ar  265  HIS265      0.1986
     82  NE2        6.5400   -0.2410   -1.7570 N.ar  265  HIS265     -0.2212
     83  N         10.9460    4.1000    1.4790 N.3   269  LEU269     -0.1245
     84  CA        11.3140    4.1400    0.0740 C.3   269  LEU269      0.1561
     85  C         11.4110    5.5080   -0.6050 C.2   269  LEU269      0.2260
     86  O         12.2530    5.6990   -1.4780 O.2   269  LEU269     -0.2867
     87  CB        10.3940    3.2180   -0.7160 C.3   269  LEU269      0.0270
     88  CG        10.4900    1.7620   -0.2430 C.3   269  LEU269      0.0019
     89  CD1        9.6730    0.8550   -1.1490 C.3   269  LEU269      0.0001
     90  CD2       11.9420    1.3310   -0.2330 C.3   269  LEU269      0.0001
     91  N         14.4630    6.5400   -3.0330 N.3   273  LYS273     -0.1245
     92  CA        14.1400    6.8070   -4.4290 C.3   273  LYS273      0.1561
     93  C         14.5470    8.2070   -4.8540 C.2   273  LYS273      0.2260
     94  O         14.9830    8.4350   -5.9710 O.2   273  LYS273     -0.2867
     95  CB        12.6420    6.6030   -4.6680 C.3   273  LYS273      0.0271
     96  CG        12.1960    5.1260   -4.7930 C.3   273  LYS273      0.0035
     97  CD        12.3840    4.5640   -6.1980 C.3   273  LYS273      0.0206
     98  CE        12.1470    3.0560   -6.2220 C.3   273  LYS273      0.1093
     99  NZ        10.8480    2.6480   -5.6120 N.3   273  LYS273     -0.1314
    100  N         16.9570   -3.3260   -5.7700 N.3   282  ASN282     -0.1240
    101  CA        16.0230   -4.0740   -4.9620 C.3   282  ASN282      0.1653
    102  C         16.6800   -5.3640   -4.5310 C.2   282  ASN282      0.2266
    103  O         17.2390   -6.0870   -5.3490 O.2   282  ASN282     -0.2867
    104  CB        14.7930   -4.3990   -5.7820 C.3   282  ASN282      0.1155
    105  CG        13.5390   -4.0220   -5.0750 C.2   282  ASN282      0.2627
    106  OD1       13.0270   -4.7840   -4.2500 O.2   282  ASN282     -0.2716
    107  ND2       13.0410   -2.8220   -5.3630 N.am  282  ASN282     -0.0877
    108  N         19.3630  -12.5890   -4.1930 N.3   291  ARG291     -0.1245
    109  CA        18.4210  -12.1130   -5.2020 C.3   291  ARG291      0.1563
    110  C         18.3730  -10.5820   -5.1920 C.2   291  ARG291      0.2260
    111  O         18.0810   -9.9620   -4.1680 O.2   291  ARG291     -0.2867
    112  CB        17.0050  -12.6890   -4.9690 C.3   291  ARG291      0.0307
    113  CG        15.9790  -12.3010   -6.0660 C.3   291  ARG291      0.0489
    114  CD        15.1340  -11.0710   -5.6920 C.3   291  ARG291      0.2205
    115  NE        14.3970  -10.4700   -6.8100 N.pl3 291  ARG291     -0.0865
    116  CZ        13.2700   -9.7680   -6.6720 C.cat 291  ARG291      0.5346
    117  NH1       12.7530   -9.5990   -5.4650 N.pl3 291  ARG291      0.1354
    118  NH2       12.6730   -9.2100   -7.7240 N.pl3 291  ARG291      0.1354
    119  N         17.3780   -7.0290   -7.8980 N.3   293  SER293     -0.1202
    120  CA        16.4060   -6.7170   -8.9250 C.3   293  SER293      0.2020
    121  C         16.4710   -5.2500   -9.2940 C.2   293  SER293      0.2619
    122  O         17.1300   -4.4620   -8.6270 O.2   293  SER293     -0.2717
    123  CB        15.0040   -7.0550   -8.4010 C.3   293  SER293      0.2103
    124  OG        13.9950   -6.4350   -9.1670 O.3   293  SER293     -0.2182
    125  N         15.7990   -4.9010  -10.3810 N.am  294  VAL294     -0.1965
    126  CA        15.7430   -3.5240  -10.8160 C.3   294  VAL294      0.1727
    127  C         14.6980   -2.8890   -9.9010 C.2   294  VAL294      0.2616
    128  O         13.9140   -3.6010   -9.2650 O.2   294  VAL294     -0.2715
    129  CB        15.2930   -3.4430  -12.2810 C.3   294  VAL294      0.0290
    130  CG1       16.3830   -4.0220  -13.1870 C.3   294  VAL294      0.0023
    131  CG2       13.9880   -4.2090  -12.4610 C.3   294  VAL294      0.0023
    132  N         14.6850   -1.5640   -9.8210 N.am  295  ASP295     -0.1971
    133  CA        13.7300   -0.8860   -8.9520 C.3   295  ASP295      0.1709
    134  C         12.7310   -0.0630   -9.7500 C.2   295  ASP295      0.2293
    135  O         12.3040    1.0060   -9.3070 O.2   295  ASP295     -0.2864
    136  CB        14.4690    0.0150   -7.9450 C.3   295  ASP295      0.1436
    137  CG        15.0310    1.2910   -8.5770 C.2   295  ASP295      0.3671
    138  OD1       15.3190    1.2940   -9.7910 O.co2 295  ASP295     -0.2456
    139  OD2       15.2010    2.2970   -7.8460 O.co2 295  ASP295     -0.2456
@<TRIPOS>BOND
     1     2     3    1
     2     2     1    1
     3     2     5    1
     4     3     4    2
     5     6     5    1
     6     5     7    1
     7   130   129    1
     8     8     9    1
     9    10    11    2
    10    10     9    1
    11   131   129    1
    12   129   126    1
    13     9    12    1
    14    30    29   ar
    15    30    28   ar
    16    29    27   ar
    17    12    13    1
    18   126   125    1
    19   126   127    1
    20   125   121   am
    21    13    14    1
    22    28    26   ar
    23   127   132   am
    24   127   128    2
    25   132   133    1
    26   138   137   ar
    27   134   135    2
    28   134   133    1
    29    27    26   ar
    30   121   120    1
    31   121   122    2
    32   124   123    1
    33    26    25    1
    34   133   136    1
    35   120   123    1
    36   120   119    1
    37    14    15    1
    38   137   136    1
    39   137   139   ar
    40    15    16    1
    41   118   116    1
    42    25    22    1
    43    21    22    1
    44    21    19   am
    45    22    23    1
    46    18    17    1
    47    18    19    1
    48    19    20    2
    49   115   116    2
    50   115   114    1
    51   116   117    1
    52    98    97    1
    53    98    99    1
    54    97    96    1
    55   113   114    1
    56   113   112    1
    57    94    93    2
    58   104   105    1
    59   104   101    1
    60   100   101    1
    61    23    24    2
    62    23    31   am
    63   107   105   am
    64   103   102    2
    65   109   110    1
    66   109   112    1
    67   109   108    1
    68   110   111    2
    69   105   106    2
    70   101   102    1
    71    93    92    1
    72    96    95    1
    73    31    32    1
    74    95    92    1
    75    92    91    1
    76    61    60    1
    77    45    44   ar
    78    32    33    1
    79    32    35    1
    80    40    41    2
    81    40    39    1
    82    38    33   am
    83    38    39    1
    84    36    35    1
    85    71    72   ar
    86    71    69   ar
    87    62    60    1
    88    33    34    2
    89    72    70   ar
    90    60    59    1
    91    42    39    1
    92    42    43    1
    93    35    37    1
    94    69    68   ar
    95    44    43    1
    96    44    46   ar
    97    70    68   ar
    98    68    67    1
    99    82    81   ar
   100    82    80   ar
   101    81    79   ar
   102    86    85    2
   103    59    56    1
   104    53    54    1
   105    53    52    1
   106    56    57    1
   107    56    55    1
   108    89    88    1
   109    67    64    1
   110    57    58    2
   111    52    51    1
   112    87    88    1
   113    87    84    1
   114    85    84    1
   115    79    78   ar
   116    80    78   ar
   117    88    90    1
   118    84    83    1
   119    78    77    1
   120    64    65    1
   121    64    63    1
   122    66    65    2
   123    51    48    1
   124    48    49    1
   125    48    47    1
   126    49    50    2
   127    77    74    1
   128    76    75    2
   129    75    74    1
   130    74    73    1
