@<TRIPOS>MOLECULE
tmp/1ps9A01.pdb
 202 190 0 0 0
SMALL
GASTEIGER

@<TRIPOS>ATOM
      1  N         10.5640   12.6900    3.4770 N.3    23  GLY23      -0.1210
      2  CA        11.5590   11.6950    3.8300 C.3    23  GLY23       0.1956
      3  C         11.0660   10.4920    4.5980 C.2    23  GLY23       0.2613
      4  O         10.1160   10.5640    5.3730 O.2    23  GLY23      -0.2717
      5  N         11.7410    9.3780    4.3750 N.am   24  SER24      -0.1938
      6  CA        11.4170    8.1240    5.0270 C.3    24  SER24       0.2055
      7  C         11.4840    8.2270    6.5560 C.2    24  SER24       0.2643
      8  O         12.4440    8.7600    7.1130 O.2    24  SER24      -0.2714
      9  CB        12.3780    7.0300    4.5350 C.3    24  SER24       0.2130
     10  OG        12.2040    5.8290    5.2720 O.3    24  SER24      -0.2179
     11  N         10.4510    7.7260    7.2280 N.am   25  MET25      -0.1962
     12  CA        10.4150    7.7400    8.6840 C.3    25  MET25       0.1736
     13  C          9.7250    6.5050    9.2490 C.2    25  MET25       0.2616
     14  O          8.5250    6.3110    9.0510 O.2    25  MET25      -0.2715
     15  CB         9.6920    8.9840    9.2110 C.3    25  MET25       0.0427
     16  CG        10.4740   10.2720    9.1070 C.3    25  MET25       0.0599
     17  SD         9.5850   11.6660    9.8490 S.3    25  MET25      -0.1393
     18  CE         8.3890   11.9840    8.5610 C.3    25  MET25       0.0692
     19  N         10.4790    5.6680    9.9520 N.am   26  HIS26      -0.1973
     20  CA         9.8860    4.4920   10.5700 C.3    26  HIS26       0.1656
     21  C          9.1580    5.0600   11.7870 C.2    26  HIS26       0.2291
     22  O          9.7780    5.6050   12.7080 O.2    26  HIS26      -0.2864
     23  CB        10.9740    3.4970   10.9810 C.3    26  HIS26       0.0771
     24  CG        10.4550    2.1350   11.3320 C.ar   26  HIS26       0.0820
     25  ND1       10.1010    1.7790   12.6180 N.ar   26  HIS26      -0.2267
     26  CD2       10.2360    1.0390   10.5650 C.ar   26  HIS26       0.1154
     27  CE1        9.6900    0.5220   12.6270 C.ar   26  HIS26       0.1986
     28  NE2        9.7620    0.0510   11.3940 N.ar   26  HIS26      -0.2212
     29  N         11.3010    2.7360    6.6990 N.3    58  GLY58      -0.1225
     30  CA        11.9880    1.5460    6.2260 C.3    58  GLY58       0.1811
     31  C         11.2710    0.2480    6.5610 C.2    58  GLY58       0.2280
     32  O         10.7480    0.0910    7.6650 O.2    58  GLY58      -0.2866
     33  N          9.9970    2.2330    1.1890 N.3   100  GLN100     -0.1245
     34  CA        11.4350    2.0750    1.3480 C.3   100  GLN100      0.1566
     35  C         11.7540    0.6380    1.7190 C.2   100  GLN100      0.2260
     36  O         11.1430    0.0780    2.6260 O.2   100  GLN100     -0.2867
     37  CB        12.0140    2.9830    2.4400 C.3   100  GLN100      0.0367
     38  CG        13.5350    2.8350    2.5150 C.3   100  GLN100      0.0905
     39  CD        14.1900    3.6350    3.6270 C.2   100  GLN100      0.2608
     40  OE1       14.2020    3.2170    4.7870 O.2   100  GLN100     -0.2717
     41  NE2       14.7450    4.7920    3.2740 N.am  100  GLN100     -0.0878
     42  N         14.3490   -1.5140    3.3710 N.3   102  LEU102     -0.1245
     43  CA        15.4980   -1.3950    4.2390 C.3   102  LEU102      0.1561
     44  C         15.8500   -2.6700    4.9890 C.2   102  LEU102      0.2260
     45  O         15.0040   -3.2900    5.6380 O.2   102  LEU102     -0.2867
     46  CB        15.2550   -0.2620    5.2390 C.3   102  LEU102      0.0270
     47  CG        16.1050   -0.2110    6.5110 C.3   102  LEU102      0.0019
     48  CD1       17.5350    0.1280    6.1630 C.3   102  LEU102      0.0001
     49  CD2       15.5380    0.8310    7.4620 C.3   102  LEU102      0.0001
     50  N         17.2840    1.5270    0.2690 N.3   161  MET161     -0.1245
     51  CA        18.0860    2.2420    1.2520 C.3   161  MET161      0.1570
     52  C         19.5250    1.7550    1.3590 C.2   161  MET161      0.2261
     53  O         19.7980    0.7210    1.9540 O.2   161  MET161     -0.2867
     54  CB        17.3470    2.1870    2.5970 C.3   161  MET161      0.0387
     55  CG        18.1890    2.1250    3.8520 C.3   161  MET161      0.0595
     56  SD        19.3810    3.4140    4.0430 S.3   161  MET161     -0.1393
     57  CE        18.6770    4.3950    5.3580 C.3   161  MET161      0.0692
     58  N         23.6070    0.9000    7.1310 N.3   166  TYR166     -0.1241
     59  CA        22.8470   -0.3470    7.1190 C.3   166  TYR166      0.1605
     60  C         23.4860   -1.3670    6.1610 C.2   166  TYR166      0.2264
     61  O         24.5650   -1.1190    5.6360 O.2   166  TYR166     -0.2867
     62  CB        21.3850   -0.0630    6.7640 C.3   166  TYR166      0.0534
     63  CG        20.6330    0.6260    7.8830 C.ar  166  TYR166     -0.0201
     64  CD1       20.5170    0.0330    9.1410 C.ar  166  TYR166     -0.0009
     65  CD2       20.0250    1.8640    7.6850 C.ar  166  TYR166     -0.0009
     66  CE1       19.8110    0.6540   10.1800 C.ar  166  TYR166      0.0417
     67  CE2       19.3090    2.5000    8.7150 C.ar  166  TYR166      0.0417
     68  CZ        19.2070    1.8870    9.9580 C.ar  166  TYR166      0.1957
     69  OH        18.4930    2.4980   10.9680 O.3   166  TYR166     -0.2866
     70  N         18.8730    5.6670   -1.9360 N.3   214  ARG214     -0.1245
     71  CA        19.4150    6.6120   -0.9840 C.3   214  ARG214      0.1563
     72  C         20.9100    6.3330   -0.8540 C.2   214  ARG214      0.2260
     73  O         21.3290    5.4140   -0.1550 O.2   214  ARG214     -0.2867
     74  CB        18.7210    6.5070    0.3780 C.3   214  ARG214      0.0307
     75  CG        18.9930    7.7450    1.2200 C.3   214  ARG214      0.0489
     76  CD        18.1220    7.8970    2.4490 C.3   214  ARG214      0.2205
     77  NE        18.3040    9.2490    2.9710 N.pl3 214  ARG214     -0.0865
     78  CZ        17.6970    9.7540    4.0380 C.cat 214  ARG214      0.5346
     79  NH1       16.8460    9.0240    4.7440 N.pl3 214  ARG214      0.1354
     80  NH2       17.9240   11.0130    4.3770 N.pl3 214  ARG214      0.1354
     81  N         21.4810   15.2310   12.4990 N.3   259  ILE259     -0.1245
     82  CA        20.1130   15.7570   12.4260 C.3   259  ILE259      0.1561
     83  C         19.6260   16.5630   13.6330 C.2   259  ILE259      0.2260
     84  O         18.5990   17.2470   13.5510 O.2   259  ILE259     -0.2867
     85  CB        19.0610   14.6250   12.1660 C.3   259  ILE259      0.0252
     86  CG1       18.7660   13.8600   13.4650 C.3   259  ILE259      0.0019
     87  CG2       19.5680   13.6670   11.0910 C.3   259  ILE259      0.0019
     88  CD1       17.5760   12.8700   13.3420 C.3   259  ILE259      0.0001
     89  N         19.0730   16.4150    1.7600 N.3   286  THR286     -0.1203
     90  CA        18.3440   16.2390    3.0190 C.3   286  THR286      0.1994
     91  C         19.0710   16.6710    4.2850 C.2   286  THR286      0.2618
     92  O         20.2630   16.9670    4.2640 O.2   286  THR286     -0.2717
     93  CB        17.9770   14.7310    3.1990 C.3   286  THR286      0.1784
     94  OG1       17.4670   14.4850    4.5200 O.3   286  THR286     -0.2211
     95  CG2       19.2120   13.8780    3.0010 C.3   286  THR286      0.0376
     96  N         18.3190   16.6620    5.3850 N.am  287  ASN287     -0.1960
     97  CA        18.7880   17.0010    6.7280 C.3   287  ASN287      0.1819
     98  C         18.6230   18.4550    7.1350 C.2   287  ASN287      0.2621
     99  O         19.1720   19.3580    6.5150 O.2   287  ASN287     -0.2715
    100  CB        20.2540   16.5920    6.9260 C.3   287  ASN287      0.1195
    101  CG        20.4250   15.0930    7.0900 C.2   287  ASN287      0.2630
    102  OD1       19.8810   14.3130    6.3150 O.2   287  ASN287     -0.2716
    103  ND2       21.1890   14.6850    8.0970 N.am  287  ASN287     -0.0877
    104  N         17.8500   18.6530    8.1940 N.am  288  ARG288     -0.1963
    105  CA        17.6090   19.9660    8.7630 C.3   288  ARG288      0.1729
    106  C         17.0840   21.0350    7.7960 C.2   288  ARG288      0.2616
    107  O         17.4550   22.2020    7.8830 O.2   288  ARG288     -0.2715
    108  CB        18.8860   20.4510    9.4650 C.3   288  ARG288      0.0348
    109  CG        19.2530   19.6590   10.7320 C.3   288  ARG288      0.0492
    110  CD        19.0700   20.5290   11.9700 C.3   288  ARG288      0.2205
    111  NE        17.7360   21.1050   11.9560 N.pl3 288  ARG288     -0.0865
    112  CZ        17.4210   22.3370   12.3390 C.cat 288  ARG288      0.5346
    113  NH1       18.3450   23.1860   12.7950 N.pl3 288  ARG288      0.1354
    114  NH2       16.1580   22.7200   12.2350 N.pl3 288  ARG288      0.1354
    115  N         16.2500   20.6320    6.8520 N.am  289  ILE289     -0.1977
    116  CA        15.6320   21.6030    5.9540 C.3   289  ILE289      0.1596
    117  C         14.2250   21.6530    6.5420 C.2   289  ILE289      0.2287
    118  O         13.4480   20.7100    6.3760 O.2   289  ILE289     -0.2864
    119  CB        15.6040   21.1000    4.5100 C.3   289  ILE289      0.0276
    120  CG1       17.0340   21.0420    3.9650 C.3   289  ILE289      0.0022
    121  CG2       14.7510   22.0110    3.6600 C.3   289  ILE289      0.0022
    122  CD1       17.1480   20.3180    2.6350 C.3   289  ILE289      0.0001
    123  N         14.4250   16.8950    0.6000 N.3   308  SER308     -0.1202
    124  CA        13.7440   15.9290    1.4280 C.3   308  SER308      0.2020
    125  C         13.5240   16.5840    2.7840 C.2   308  SER308      0.2619
    126  O         14.3730   17.3300    3.2740 O.2   308  SER308     -0.2717
    127  CB        14.5990   14.6750    1.5910 C.3   308  SER308      0.2103
    128  OG        14.0310   13.8030    2.5510 O.3   308  SER308     -0.2182
    129  N         12.3670   16.3300    3.3700 N.am  309  MET309     -0.1965
    130  CA        12.0280   16.8530    4.6830 C.3   309  MET309      0.1736
    131  C         11.2230   15.7650    5.3530 C.2   309  MET309      0.2616
    132  O         10.1510   15.3820    4.8660 O.2   309  MET309     -0.2715
    133  CB        11.1930   18.1390    4.5890 C.3   309  MET309      0.0427
    134  CG        11.9740   19.3490    4.1010 C.3   309  MET309      0.0599
    135  SD        11.0750   20.8970    4.3300 S.3   309  MET309     -0.1393
    136  CE        10.2080   20.9730    2.7820 C.3   309  MET309      0.0692
    137  N         11.7390   15.2520    6.4610 N.am  310  ALA310     -0.1963
    138  CA        11.0360   14.1910    7.1630 C.3   310  ALA310      0.1728
    139  C         10.3420   14.7280    8.3980 C.2   310  ALA310      0.2616
    140  O          9.1170   14.8550    8.4250 O.2   310  ALA310     -0.2715
    141  CB        12.0110   13.0590    7.5470 C.3   310  ALA310      0.0334
    142  N         11.1280   15.0380    9.4210 N.am  311  ARG311     -0.1964
    143  CA        10.5800   15.5440   10.6660 C.3   311  ARG311      0.1714
    144  C          9.6640   16.7630   10.5180 C.2   311  ARG311      0.2458
    145  O          8.6820   16.8860   11.2350 O.2   311  ARG311     -0.2730
    146  CB        11.7150   15.8490   11.6470 C.3   311  ARG311      0.0347
    147  CG        12.3870   14.5920   12.1980 C.3   311  ARG311      0.0492
    148  CD        13.6460   14.9190   13.0000 C.3   311  ARG311      0.2205
    149  NE        14.5980   15.6680   12.1840 N.pl3 311  ARG311     -0.0865
    150  CZ        15.6880   16.2700   12.6500 C.cat 311  ARG311      0.5346
    151  NH1       15.9900   16.2170   13.9420 N.pl3 311  ARG311      0.1354
    152  NH2       16.4630   16.9500   11.8160 N.pl3 311  ARG311      0.1354
    153  N          9.9750   17.6890    9.5980 N.am  312  PRO312     -0.2727
    154  CA         9.0740   18.8410    9.4830 C.3   312  PRO312      0.1402
    155  C          7.6450   18.4320    9.1610 C.2   312  PRO312      0.2269
    156  O          6.7010   19.1870    9.3990 O.2   312  PRO312     -0.2865
    157  CB         9.7150   19.6610    8.3690 C.3   312  PRO312      0.0296
    158  CG        11.1750   19.4120    8.6120 C.3   312  PRO312      0.0237
    159  CD        11.2130   17.9210    8.8320 C.3   312  PRO312      0.0939
    160  N          6.1500   15.8480   10.5190 N.3   314  LEU314     -0.1245
    161  CA         5.5800   15.3080   11.7490 C.3   314  LEU314      0.1561
    162  C          5.1220   16.5490   12.5100 C.2   314  LEU314      0.2260
    163  O          4.0420   16.5860   13.0920 O.2   314  LEU314     -0.2867
    164  CB         6.6590   14.6030   12.5720 C.3   314  LEU314      0.0270
    165  CG         6.7230   13.0770   12.6340 C.3   314  LEU314      0.0019
    166  CD1        6.3810   12.4580   11.2930 C.3   314  LEU314      0.0001
    167  CD2        8.1260   12.6700   13.0820 C.3   314  LEU314      0.0001
    168  N          9.7720   22.3280   12.8900 N.3   334  CYS334     -0.1235
    169  CA        10.4370   21.2280   13.5770 C.3   334  CYS334      0.1677
    170  C         11.7160   21.8320   14.1390 C.2   334  CYS334      0.2270
    171  O         12.5130   22.4170   13.3900 O.2   334  CYS334     -0.2867
    172  CB        10.8000   20.1170   12.6050 C.3   334  CYS334      0.0956
    173  SG        12.0990   19.0300   13.2400 S.3   334  CYS334     -0.0801
    174  N         10.2410   12.0140   18.5400 N.3   341  CYS341     -0.1221
    175  CA        10.3400   11.1940   17.3400 C.3   341  CYS341      0.1808
    176  C         11.4430   10.1490   17.3770 C.2   341  CYS341      0.2601
    177  O         11.1750    8.9790   17.6180 O.2   341  CYS341     -0.2717
    178  CB        10.4840   12.0690   16.0800 C.3   341  CYS341      0.0970
    179  SG        11.9800   13.1150   15.9540 S.3   341  CYS341     -0.0800
    180  N         12.6850   10.5580   17.1530 N.am  342  LEU342     -0.1979
    181  CA        13.7720    9.5880   17.1350 C.3   342  LEU342      0.1596
    182  C         13.9920    8.8980   18.4810 C.2   342  LEU342      0.2287
    183  O         14.1480    7.6750   18.5290 O.2   342  LEU342     -0.2864
    184  CB        15.0720   10.2410   16.6520 C.3   342  LEU342      0.0297
    185  CG        16.1040    9.2180   16.1580 C.3   342  LEU342      0.0022
    186  CD1       15.4940    8.3970   15.0160 C.3   342  LEU342      0.0001
    187  CD2       17.3740    9.9170   15.6860 C.3   342  LEU342      0.0001
    188  N         11.1340    6.0310   18.8950 N.3   345  ILE345     -0.1245
    189  CA        11.1590    4.8330   18.0620 C.3   345  ILE345      0.1561
    190  C         12.4330    4.0320   18.3360 C.2   345  ILE345      0.2260
    191  O         12.5360    2.8620   17.9610 O.2   345  ILE345     -0.2867
    192  CB        11.0520    5.1730   16.5460 C.3   345  ILE345      0.0252
    193  CG1       10.8330    3.8880   15.7400 C.3   345  ILE345      0.0019
    194  CG2       12.3100    5.8810   16.0620 C.3   345  ILE345      0.0019
    195  CD1        9.6250    3.0680   16.1810 C.3   345  ILE345      0.0001
    196  N          6.3880    6.8120   17.2350 N.3   351  THR351     -0.1218
    197  CA         6.9130    8.1700   17.1260 C.3   351  THR351      0.1862
    198  C          5.8030    9.1990   17.2620 C.2   351  THR351      0.2287
    199  O          4.6530    8.9240   16.9510 O.2   351  THR351     -0.2866
    200  CB         7.5670    8.4070   15.7690 C.3   351  THR351      0.1770
    201  OG1        6.5450    8.5050   14.7730 O.3   351  THR351     -0.2211
    202  CG2        8.4940    7.2600   15.4090 C.3   351  THR351      0.0375
@<TRIPOS>BOND
     1    70    71    1
     2    71    72    1
     3    71    74    1
     4    72    73    2
     5    50    51    1
     6    74    75    1
     7   123   124    1
     8    33    34    1
     9    75    76    1
    10    51    52    1
    11    51    54    1
    12    34    35    1
    13    34    37    1
    14    52    53    2
    15   124   127    1
    16   124   125    1
    17   127   128    1
    18    35    36    2
    19    89    90    1
    20    37    38    1
    21    76    77    1
    22    38    39    1
    23    54    55    1
    24   122   120    1
    25   136   135    1
    26   125   126    2
    27   125   129   am
    28    77    78    2
    29    95    93    1
    30    90    93    1
    31    90    91    1
    32    93    94    1
    33    41    39   am
    34   129   130    1
    35    42    43    1
    36     1     2    1
    37    39    40    2
    38   121   119    1
    39     2     3    1
    40    55    56    1
    41   120   119    1
    42    78    80    1
    43    78    79    1
    44    56    57    1
    45   134   135    1
    46   134   133    1
    47    43    44    1
    48    43    46    1
    49    92    91    2
    50    91    96   am
    51     5     3   am
    52     5     6    1
    53   119   116    1
    54     9     6    1
    55     9    10    1
    56   133   130    1
    57     3     4    2
    58   130   131    1
    59   132   131    2
    60    44    45    2
    61     6     7    1
    62    46    47    1
    63   131   137   am
    64    96    97    1
    65    61    60    2
    66   116   117    1
    67   116   115    1
    68    60    59    1
    69    48    47    1
    70    30    31    1
    71    30    29    1
    72   102   101    2
    73   118   117    2
    74   137   138    1
    75    47    49    1
    76    99    98    2
    77     7     8    2
    78     7    11   am
    79    31    32    2
    80    97   100    1
    81    97    98    1
    82    62    59    1
    83    62    63    1
    84   115   106   am
    85   100   101    1
    86   101   103   am
    87    59    58    1
    88    98   104   am
    89   138   141    1
    90   138   139    1
    91    11    12    1
    92    65    63   ar
    93    65    67   ar
    94   106   107    2
    95   106   105    1
    96    63    64   ar
    97   104   105    1
    98   157   158    1
    99   157   154    1
   100   139   140    2
   101   139   142   am
   102    18    17    1
   103   158   159    1
   104    12    15    1
   105    12    13    1
   106    67    68   ar
   107   105   108    1
   108   159   153    1
   109    14    13    2
   110    16    15    1
   111    16    17    1
   112    64    66   ar
   113   155   156    2
   114   155   154    1
   115    13    19   am
   116   142   143    1
   117   108   109    1
   118   154   153    1
   119   153   144   am
   120    19    20    1
   121    68    66   ar
   122    68    69    1
   123   144   143    1
   124   144   145    2
   125   160   161    1
   126    26    24   ar
   127    26    28   ar
   128    20    23    1
   129    20    21    1
   130   143   146    1
   131   109   110    1
   132    23    24    1
   133    87    85    1
   134   166   165    1
   135    24    25   ar
   136    28    27   ar
   137   146   147    1
   138   161   162    1
   139   161   164    1
   140    21    22    2
   141   152   150    1
   142   111   110    1
   143   111   112    2
   144    85    82    1
   145    85    86    1
   146   149   150    2
   147   149   148    1
   148   147   148    1
   149   114   112    1
   150   112   113    1
   151    82    81    1
   152    82    83    1
   153   162   163    2
   154   164   165    1
   155   172   173    1
   156   172   169    1
   157    25    27   ar
   158   165   167    1
   159   150   151    1
   160   168   169    1
   161    88    86    1
   162   171   170    2
   163    84    83    2
   164   169   170    1
   165   201   200    1
   166   186   185    1
   167   202   200    1
   168   187   185    1
   169   193   195    1
   170   193   192    1
   171   200   197    1
   172   179   178    1
   173   194   192    1
   174   178   175    1
   175   185   184    1
   176   192   189    1
   177   184   181    1
   178   199   198    2
   179   197   196    1
   180   197   198    1
   181   181   180    1
   182   181   182    1
   183   180   176   am
   184   175   176    1
   185   175   174    1
   186   176   177    2
   187   191   190    2
   188   189   190    1
   189   189   188    1
   190   182   183    2
