@<TRIPOS>MOLECULE
tmp/1psdB01.pdb
 79 78 0 0 0
SMALL
GASTEIGER

@<TRIPOS>ATOM
      1  N        110.8900   31.6000   35.3630 N.3   338  HIS338     -0.1226
      2  CA       111.9250   32.4190   34.7250 C.3   338  HIS338      0.1752
      3  C        111.7090   32.6510   33.2300 C.2   338  HIS338      0.2596
      4  O        110.7400   32.1660   32.6490 O.2   338  HIS338     -0.2718
      5  CB       113.2910   31.7410   34.9130 C.3   338  HIS338      0.0759
      6  CG       113.3400   30.3340   34.3900 C.ar  338  HIS338      0.0818
      7  ND1      113.1990   29.2280   35.2020 N.ar  338  HIS338     -0.2268
      8  CD2      113.4600   29.8600   33.1250 C.ar  338  HIS338      0.1154
      9  CE1      113.2260   28.1340   34.4600 C.ar  338  HIS338      0.1986
     10  NE2      113.3830   28.4910   33.1980 N.ar  338  HIS338     -0.2212
     11  N        112.6630   33.3450   32.6120 N.am  339  GLU339     -0.1965
     12  CA       112.6300   33.6230   31.1850 C.3   339  GLU339      0.1733
     13  C        113.0190   32.3690   30.4320 C.2   339  GLU339      0.2616
     14  O        114.0180   31.7250   30.7530 O.2   339  GLU339     -0.2715
     15  CB       113.6550   34.6870   30.8120 C.3   339  GLU339      0.0429
     16  CG       113.2930   36.1060   31.1380 C.3   339  GLU339      0.1163
     17  CD       113.9670   37.0830   30.1860 C.2   339  GLU339      0.3649
     18  OE1      115.2200   37.1550   30.1670 O.co2 339  GLU339     -0.2457
     19  OE2      113.2350   37.7650   29.4360 O.co2 339  GLU339     -0.2457
     20  N        112.2630   32.0430   29.3990 N.am  340  ASN340     -0.1958
     21  CA       112.5790   30.8670   28.6150 C.3   340  ASN340      0.1819
     22  C        113.7460   31.1810   27.6750 C.2   340  ASN340      0.2621
     23  O        113.5800   31.8440   26.6390 O.2   340  ASN340     -0.2715
     24  CB       111.3480   30.3890   27.8330 C.3   340  ASN340      0.1195
     25  CG       111.6400   29.1760   26.9750 C.2   340  ASN340      0.2630
     26  OD1      111.0260   28.9830   25.9270 O.2   340  ASN340     -0.2716
     27  ND2      112.5780   28.3370   27.4240 N.am  340  ASN340     -0.0877
     28  N        114.9350   30.7380   28.0640 N.am  341  ARG341     -0.1964
     29  CA       116.1350   30.9390   27.2580 C.3   341  ARG341      0.1714
     30  C        117.2560   29.9800   27.6940 C.2   341  ARG341      0.2458
     31  O        117.2370   29.4440   28.8080 O.2   341  ARG341     -0.2730
     32  CB       116.5860   32.4050   27.3030 C.3   341  ARG341      0.0347
     33  CG       116.8960   32.9540   28.6760 C.3   341  ARG341      0.0492
     34  CD       117.3720   34.3810   28.5350 C.3   341  ARG341      0.2205
     35  NE       118.0140   34.8820   29.7430 N.pl3 341  ARG341     -0.0865
     36  CZ       119.1220   34.3720   30.2710 C.cat 341  ARG341      0.5346
     37  NH1      119.7210   33.3220   29.7160 N.pl3 341  ARG341      0.1354
     38  NH2      119.6290   34.9090   31.3720 N.pl3 341  ARG341      0.1354
     39  N        118.2250   29.7150   26.8010 N.am  342  PRO342     -0.2716
     40  CA       119.3400   28.8050   27.1000 C.3   342  PRO342      0.1536
     41  C        120.0890   29.0030   28.4110 C.2   342  PRO342      0.2599
     42  O        120.0870   30.0850   28.9980 O.2   342  PRO342     -0.2715
     43  CB       120.2520   28.9800   25.8930 C.3   342  PRO342      0.0310
     44  CG       119.2710   29.2450   24.7800 C.3   342  PRO342      0.0237
     45  CD       118.3250   30.2320   25.4220 C.3   342  PRO342      0.0939
     46  N        120.6370   27.9020   28.9120 N.am  343  GLY343     -0.1941
     47  CA       121.4170   27.9280   30.1350 C.3   343  GLY343      0.2014
     48  C        120.7790   28.2260   31.4780 C.2   343  GLY343      0.2639
     49  O        121.4510   28.0660   32.4970 O.2   343  GLY343     -0.2714
     50  N        119.5180   28.6400   31.5270 N.am  344  VAL344     -0.1963
     51  CA       118.9070   28.9240   32.8310 C.3   344  VAL344      0.1727
     52  C        118.8480   27.6660   33.7120 C.2   344  VAL344      0.2616
     53  O        119.3520   27.6710   34.8390 O.2   344  VAL344     -0.2715
     54  CB       117.4850   29.5450   32.7110 C.3   344  VAL344      0.0290
     55  CG1      116.9900   29.9630   34.0880 C.3   344  VAL344      0.0023
     56  CG2      117.4990   30.7560   31.7850 C.3   344  VAL344      0.0023
     57  N        118.3050   26.5740   33.1660 N.am  345  LEU345     -0.1977
     58  CA       118.1760   25.3050   33.9020 C.3   345  LEU345      0.1596
     59  C        119.5140   24.7260   34.3680 C.2   345  LEU345      0.2287
     60  O        119.6400   24.2950   35.5170 O.2   345  LEU345     -0.2864
     61  CB       117.4260   24.2650   33.0650 C.3   345  LEU345      0.0297
     62  CG       117.0010   22.9930   33.7980 C.3   345  LEU345      0.0022
     63  CD1      115.9260   23.3400   34.8030 C.3   345  LEU345      0.0001
     64  CD2      116.4880   21.9580   32.8120 C.3   345  LEU345      0.0001
     65  N        109.9910   20.3350   34.2680 N.3   364  LEU364     -0.1245
     66  CA       110.1070   21.6350   33.6470 C.3   364  LEU364      0.1561
     67  C        109.2390   21.6420   32.4190 C.2   364  LEU364      0.2260
     68  O        109.3190   20.7410   31.5880 O.2   364  LEU364     -0.2867
     69  CB       111.5680   21.9010   33.2490 C.3   364  LEU364      0.0270
     70  CG       112.0830   23.0890   32.4040 C.3   364  LEU364      0.0019
     71  CD1      112.2500   22.7000   30.9420 C.3   364  LEU364      0.0001
     72  CD2      111.2110   24.3100   32.5670 C.3   364  LEU364      0.0001
     73  N        107.6120   24.5600   29.5390 N.3   366  THR366     -0.1218
     74  CA       107.8340   25.9180   29.1170 C.3   366  THR366      0.1862
     75  C        106.7590   26.4860   28.1850 C.2   366  THR366      0.2287
     76  O        106.0910   25.7530   27.4510 O.2   366  THR366     -0.2866
     77  CB       109.2470   26.0020   28.4930 C.3   366  THR366      0.1770
     78  OG1      109.9140   27.1730   28.9700 O.3   366  THR366     -0.2211
     79  CG2      109.1930   25.9950   26.9640 C.3   366  THR366      0.0375
@<TRIPOS>BOND
     1    44    45    1
     2    44    43    1
     3    45    39    1
     4    43    40    1
     5    26    25    2
     6    23    22    2
     7    39    40    1
     8    39    30   am
     9    79    77    1
    10    25    27   am
    11    25    24    1
    12    40    41    1
    13    29    32    1
    14    29    30    1
    15    29    28    1
    16    32    33    1
    17    76    75    2
    18    22    28   am
    19    22    21    1
    20    30    31    2
    21    24    21    1
    22    75    74    1
    23    41    46   am
    24    41    42    2
    25    77    78    1
    26    77    74    1
    27    34    33    1
    28    34    35    1
    29    21    20    1
    30    46    47    1
    31    74    73    1
    32    20    13   am
    33    19    17   ar
    34    37    36    1
    35    35    36    2
    36    47    48    1
    37    18    17   ar
    38    17    16    1
    39    36    38    1
    40    13    14    2
    41    13    12    1
    42    15    16    1
    43    15    12    1
    44    71    70    1
    45    12    11    1
    46    48    50   am
    47    48    49    2
    48    50    51    1
    49    68    67    2
    50    56    54    1
    51    70    72    1
    52    70    69    1
    53    67    66    1
    54    11     3   am
    55     4     3    2
    56    54    51    1
    57    54    55    1
    58    64    62    1
    59    51    52    1
    60    61    62    1
    61    61    58    1
    62     8    10   ar
    63     8     6   ar
    64    57    52   am
    65    57    58    1
    66    10     9   ar
    67     3     2    1
    68    69    66    1
    69    66    65    1
    70    52    53    2
    71    62    63    1
    72    58    59    1
    73    59    60    2
    74     6     5    1
    75     6     7   ar
    76     9     7   ar
    77     2     5    1
    78     2     1    1
