@<TRIPOS>MOLECULE
tmp/1pstA03.pdb
 120 120 0 0 0
SMALL
GASTEIGER

@<TRIPOS>ATOM
      1  N         17.8930   34.3350   41.8920 N.3    89  ALA89      -0.1245
      2  CA        18.9830   34.4700   42.8500 C.3    89  ALA89       0.1562
      3  C         18.4150   34.9290   44.2140 C.2    89  ALA89       0.2260
      4  O         18.5410   34.1850   45.2010 O.2    89  ALA89      -0.2867
      5  CB        19.9950   35.4910   42.3310 C.3    89  ALA89       0.0290
      6  N         18.4270   32.6340   47.6310 N.3    93  PHE93      -0.1241
      7  CA        19.2080   33.0610   48.7830 C.3    93  PHE93       0.1605
      8  C         18.3010   33.0800   50.0000 C.2    93  PHE93       0.2264
      9  O         18.5600   32.4410   51.0220 O.2    93  PHE93      -0.2867
     10  CB        19.7760   34.4380   48.5080 C.3    93  PHE93       0.0534
     11  CG        20.7450   34.4750   47.3260 C.ar   93  PHE93      -0.0203
     12  CD1       21.3620   33.3070   46.8530 C.ar   93  PHE93      -0.0042
     13  CD2       21.0310   35.7040   46.7160 C.ar   93  PHE93      -0.0042
     14  CE1       22.2530   33.3770   45.7860 C.ar   93  PHE93      -0.0003
     15  CE2       21.9260   35.7580   45.6480 C.ar   93  PHE93      -0.0003
     16  CZ        22.5390   34.5990   45.1810 C.ar   93  PHE93      -0.0000
     17  N         24.3530   42.3160   48.5240 N.3   124  TYR124     -0.1241
     18  CA        23.9840   41.9080   47.1720 C.3   124  TYR124      0.1605
     19  C         22.8010   42.7150   46.6650 C.2   124  TYR124      0.2264
     20  O         22.8100   43.2900   45.5790 O.2   124  TYR124     -0.2867
     21  CB        23.6510   40.3980   47.1710 C.3   124  TYR124      0.0534
     22  CG        22.9850   39.9040   45.8980 C.ar  124  TYR124     -0.0201
     23  CD1       23.6800   39.8890   44.6850 C.ar  124  TYR124     -0.0009
     24  CD2       21.6460   39.5270   45.9450 C.ar  124  TYR124     -0.0009
     25  CE1       23.0280   39.5080   43.5130 C.ar  124  TYR124      0.0417
     26  CE2       20.9930   39.1460   44.7800 C.ar  124  TYR124      0.0417
     27  CZ        21.6870   39.1430   43.5740 C.ar  124  TYR124      0.1957
     28  OH        21.0130   38.7940   42.4270 O.3   124  TYR124     -0.2866
     29  N         23.6060   46.5200   45.6020 N.3   127  LEU127     -0.1245
     30  CA        24.0940   46.6420   44.2480 C.3   127  LEU127      0.1561
     31  C         23.0850   46.4030   43.1390 C.2   127  LEU127      0.2260
     32  O         23.1060   47.0700   42.1050 O.2   127  LEU127     -0.2867
     33  CB        25.2080   45.6650   44.0530 C.3   127  LEU127      0.0270
     34  CG        26.3620   45.7110   44.9870 C.3   127  LEU127      0.0019
     35  CD1       27.1140   44.4140   44.9390 C.3   127  LEU127      0.0001
     36  CD2       27.2090   46.8850   44.6210 C.3   127  LEU127      0.0001
     37  N         25.2240   45.1130   38.3370 N.3   142  PHE142     -0.1241
     38  CA        26.3750   44.4810   37.7440 C.3   142  PHE142      0.1605
     39  C         25.9820   43.2820   36.8960 C.2   142  PHE142      0.2264
     40  O         24.9360   42.6730   37.1520 O.2   142  PHE142     -0.2867
     41  CB        27.3560   44.1070   38.8670 C.3   142  PHE142      0.0534
     42  CG        27.0330   43.0030   39.8540 C.ar  142  PHE142     -0.0203
     43  CD1       26.2810   43.2790   40.9900 C.ar  142  PHE142     -0.0042
     44  CD2       27.5700   41.7350   39.6330 C.ar  142  PHE142     -0.0042
     45  CE1       26.0750   42.2630   41.9150 C.ar  142  PHE142     -0.0003
     46  CE2       27.3640   40.7240   40.5580 C.ar  142  PHE142     -0.0003
     47  CZ        26.6140   40.9860   41.7080 C.ar  142  PHE142     -0.0000
     48  N         26.2680   39.4500   35.5450 N.3   144  TYR144     -0.1241
     49  CA        26.5600   38.1730   36.1360 C.3   144  TYR144      0.1605
     50  C         27.5430   37.5220   35.2040 C.2   144  TYR144      0.2264
     51  O         27.1580   36.8800   34.2340 O.2   144  TYR144     -0.2867
     52  CB        25.2590   37.3810   36.2580 C.3   144  TYR144      0.0534
     53  CG        24.2570   38.0410   37.1920 C.ar  144  TYR144     -0.0201
     54  CD1       24.6960   38.9030   38.2040 C.ar  144  TYR144     -0.0009
     55  CD2       22.8990   37.7550   37.0690 C.ar  144  TYR144     -0.0009
     56  CE1       23.7940   39.4720   39.0970 C.ar  144  TYR144      0.0417
     57  CE2       21.9850   38.3220   37.9660 C.ar  144  TYR144      0.0417
     58  CZ        22.4450   39.1730   38.9740 C.ar  144  TYR144      0.1957
     59  OH        21.5880   39.7310   39.8890 O.3   144  TYR144     -0.2866
     60  N         31.8520   36.0080   35.4340 N.3   146  ILE146     -0.1231
     61  CA        33.0990   35.8780   36.1840 C.3   146  ILE146      0.1692
     62  C         34.0340   37.0450   35.9230 C.2   146  ILE146      0.2592
     63  O         34.3910   37.7110   36.9000 O.2   146  ILE146     -0.2718
     64  CB        33.7630   34.5260   35.8300 C.3   146  ILE146      0.0266
     65  CG1       32.9390   33.4890   36.5860 C.3   146  ILE146      0.0019
     66  CG2       35.2400   34.4230   36.2090 C.3   146  ILE146      0.0020
     67  CD1       33.3890   32.0180   36.4730 C.3   146  ILE146      0.0001
     68  N         34.3400   37.3990   34.6740 N.am  147  TRP147     -0.1976
     69  CA        35.1700   38.5660   34.4680 C.3   147  TRP147      0.1640
     70  C         34.4120   39.8670   34.3290 C.2   147  TRP147      0.2290
     71  O         34.8380   40.8920   34.8710 O.2   147  TRP147     -0.2864
     72  CB        36.0290   38.3270   33.2600 C.3   147  TRP147      0.0576
     73  CG        37.0850   37.2960   33.6270 C.ar  147  TRP147      0.0006
     74  CD1       36.8930   35.9650   33.3560 C.ar  147  TRP147      0.0946
     75  CD2       38.2580   37.5460   34.2960 C.ar  147  TRP147      0.0152
     76  NE1       37.9400   35.3580   33.8540 N.ar  147  TRP147     -0.2442
     77  CE2       38.7770   36.2470   34.4230 C.ar  147  TRP147      0.0810
     78  CE3       38.9590   38.6460   34.8120 C.ar  147  TRP147      0.0012
     79  CZ2       39.9960   36.0330   35.0750 C.ar  147  TRP147      0.0191
     80  CZ3       40.1760   38.4300   35.4650 C.ar  147  TRP147      0.0001
     81  CH2       40.6940   37.1350   35.5930 C.ar  147  TRP147      0.0015
     82  N         31.7880   41.2180   35.8380 N.3   149  HIS149     -0.1226
     83  CA        31.4810   41.9840   37.0280 C.3   149  HIS149      0.1752
     84  C         32.7290   42.7440   37.4890 C.2   149  HIS149      0.2595
     85  O         32.5950   43.8780   37.9190 O.2   149  HIS149     -0.2718
     86  CB        30.9380   41.0730   38.1520 C.3   149  HIS149      0.0759
     87  CG        31.7820   40.0400   38.9010 C.ar  149  HIS149      0.0818
     88  ND1       32.4880   38.9970   38.4800 N.ar  149  HIS149     -0.2268
     89  CD2       31.8350   40.0210   40.2730 C.ar  149  HIS149      0.1154
     90  CE1       32.9510   38.3580   39.5180 C.ar  149  HIS149      0.1986
     91  NE2       32.5460   38.9860   40.5950 N.ar  149  HIS149     -0.2212
     92  N         33.9730   42.2710   37.3570 N.am  150  LEU150     -0.1980
     93  CA        35.1400   43.0630   37.7460 C.3   150  LEU150      0.1596
     94  C         35.3180   44.2340   36.7850 C.2   150  LEU150      0.2287
     95  O         35.9020   45.2680   37.1240 O.2   150  LEU150     -0.2864
     96  CB        36.4430   42.2670   37.7200 C.3   150  LEU150      0.0297
     97  CG        36.8580   41.4280   38.9140 C.3   150  LEU150      0.0022
     98  CD1       35.9140   40.2620   39.0890 C.3   150  LEU150      0.0001
     99  CD2       38.2530   40.8940   38.6880 C.3   150  LEU150      0.0001
    100  N         32.6590   45.8510   35.5720 N.3   152  TRP152     -0.1227
    101  CA        31.7290   46.7750   36.1910 C.3   152  TRP152      0.1737
    102  C         32.3730   47.4210   37.4130 C.2   152  TRP152      0.2595
    103  O         32.2750   48.6390   37.5660 O.2   152  TRP152     -0.2718
    104  CB        30.4610   46.0360   36.6040 C.3   152  TRP152      0.0564
    105  CG        29.5230   46.8510   37.5000 C.ar  152  TRP152      0.0003
    106  CD1       28.6530   47.7560   36.9650 C.ar  152  TRP152      0.0946
    107  CD2       29.4310   46.8040   38.8690 C.ar  152  TRP152      0.0152
    108  NE1       28.0090   48.2790   37.9750 N.ar  152  TRP152     -0.2442
    109  CE2       28.4350   47.7500   39.1180 C.ar  152  TRP152      0.0810
    110  CE3       30.0190   46.1210   39.9280 C.ar  152  TRP152      0.0012
    111  CZ2       28.0020   48.0400   40.4070 C.ar  152  TRP152      0.0191
    112  CZ3       29.5900   46.4060   41.2220 C.ar  152  TRP152      0.0001
    113  CH2       28.5920   47.3570   41.4590 C.ar  152  TRP152      0.0015
    114  N         33.0470   46.6430   38.2650 N.am  153  VAL153     -0.1980
    115  CA        33.7020   47.1210   39.4780 C.3   153  VAL153      0.1595
    116  C         34.6720   48.2410   39.1420 C.2   153  VAL153      0.2287
    117  O         34.5130   49.3600   39.6430 O.2   153  VAL153     -0.2864
    118  CB        34.4080   45.9020   40.1670 C.3   153  VAL153      0.0276
    119  CG1       35.6320   46.2450   41.0050 C.3   153  VAL153      0.0022
    120  CG2       33.3930   45.3130   41.1170 C.3   153  VAL153      0.0022
@<TRIPOS>BOND
     1    72    73    1
     2    72    69    1
     3    74    73   ar
     4    74    76   ar
     5    73    75   ar
     6    76    77   ar
     7    51    50    2
     8    75    77   ar
     9    75    78   ar
    10    70    69    1
    11    70    71    2
    12    77    79   ar
    13    69    68    1
    14    68    62   am
    15    78    80   ar
    16    79    81   ar
    17    50    49    1
    18    60    61    1
    19    80    81   ar
    20    48    49    1
    21   100   101    1
    22    64    61    1
    23    64    66    1
    24    64    65    1
    25    82    83    1
    26    62    61    1
    27    62    63    2
    28    49    52    1
    29   101   104    1
    30   101   102    1
    31    52    53    1
    32    67    65    1
    33   104   105    1
    34    94    95    2
    35    94    93    1
    36    39    40    2
    37    39    38    1
    38   106   105   ar
    39   106   108   ar
    40    83    84    1
    41    83    86    1
    42    55    53   ar
    43    55    57   ar
    44    53    54   ar
    45    92    84   am
    46    92    93    1
    47   102   103    2
    48   102   114   am
    49    84    85    2
    50   105   107   ar
    51    96    93    1
    52    96    97    1
    53    38    37    1
    54    38    41    1
    55    57    58   ar
    56   108   109   ar
    57    86    87    1
    58    54    56   ar
    59   114   115    1
    60    88    87   ar
    61    88    90   ar
    62    99    97    1
    63    41    42    1
    64   107   109   ar
    65   107   110   ar
    66    87    89   ar
    67    97    98    1
    68    58    56   ar
    69    58    59    1
    70   109   111   ar
    71   116   115    1
    72   116   117    2
    73   115   118    1
    74    90    91   ar
    75    44    42   ar
    76    44    46   ar
    77    42    43   ar
    78   110   112   ar
    79   118   119    1
    80   118   120    1
    81    89    91   ar
    82   111   113   ar
    83    46    47   ar
    84    43    45   ar
    85   112   113   ar
    86    47    45   ar
    87     1     2    1
    88    32    31    2
    89     5     2    1
    90    28    27    1
    91     2     3    1
    92    31    30    1
    93    25    27   ar
    94    25    23   ar
    95    27    26   ar
    96    33    30    1
    97    33    34    1
    98     3     4    2
    99    30    29    1
   100    36    34    1
   101    23    22   ar
   102    26    24   ar
   103    35    34    1
   104    16    15   ar
   105    16    14   ar
   106    20    19    2
   107    15    13   ar
   108    14    12   ar
   109    22    24   ar
   110    22    21    1
   111    19    18    1
   112    13    11   ar
   113    12    11   ar
   114    21    18    1
   115    18    17    1
   116    11    10    1
   117     6     7    1
   118    10     7    1
   119     7     8    1
   120     8     9    2
