@<TRIPOS>MOLECULE
tmp/1pt2A00.pdb
 179 171 0 0 0
SMALL
GASTEIGER

@<TRIPOS>ATOM
      1  N         45.7100   40.6420    7.3140 N.3    52  TRP52      -0.1227
      2  CA        45.8480   40.1490    8.6840 C.3    52  TRP52       0.1737
      3  C         46.2280   38.6630    8.7580 C.2    52  TRP52       0.2595
      4  O         47.2820   38.3000    8.2440 O.2    52  TRP52      -0.2718
      5  CB        44.6590   40.5650    9.5810 C.3    52  TRP52       0.0564
      6  CG        43.2530   40.1660    9.1860 C.ar   52  TRP52       0.0003
      7  CD1       42.4550   39.2540    9.8240 C.ar   52  TRP52       0.0946
      8  CD2       42.4500   40.7290    8.1370 C.ar   52  TRP52       0.0152
      9  NE1       41.2270   39.1890    9.2130 N.ar   52  TRP52      -0.2442
     10  CE2       41.1930   40.0860    8.1780 C.ar   52  TRP52       0.0810
     11  CE3       42.6670   41.7090    7.1560 C.ar   52  TRP52       0.0012
     12  CZ2       40.1670   40.3760    7.2730 C.ar   52  TRP52       0.0191
     13  CZ3       41.6410   42.0020    6.2580 C.ar   52  TRP52       0.0001
     14  CH2       40.4070   41.3360    6.3270 C.ar   52  TRP52       0.0015
     15  N         45.4220   37.8300    9.4270 N.am   53  ASP53      -0.1974
     16  CA        45.7090   36.4030    9.6250 C.3    53  ASP53       0.1709
     17  C         46.4100   35.8010    8.4260 C.2    53  ASP53       0.2293
     18  O         45.8800   35.8320    7.3210 O.2    53  ASP53      -0.2864
     19  CB        44.4180   35.6090    9.8090 C.3    53  ASP53       0.1436
     20  CG        43.8200   35.7340   11.1890 C.2    53  ASP53       0.3671
     21  OD1       44.0730   36.7310   11.9140 O.co2  53  ASP53      -0.2456
     22  OD2       43.0520   34.8530   11.6160 O.co2  53  ASP53      -0.2456
     23  N         44.3210   36.5920    5.0100 N.3    76  LEU76      -0.1245
     24  CA        43.0510   37.2900    4.8910 C.3    76  LEU76       0.1561
     25  C         43.3510   38.7300    4.5190 C.2    76  LEU76       0.2260
     26  O         44.2820   39.3290    5.0480 O.2    76  LEU76      -0.2867
     27  CB        42.2720   37.2430    6.2000 C.3    76  LEU76       0.0270
     28  CG        42.0330   35.8580    6.8110 C.3    76  LEU76       0.0019
     29  CD1       41.0290   35.9880    7.9430 C.3    76  LEU76       0.0001
     30  CD2       41.5610   34.8340    5.7740 C.3    76  LEU76       0.0001
     31  N         36.2870   40.0450    3.5820 N.3    86  THR86      -0.1218
     32  CA        37.4030   39.1510    3.8740 C.3    86  THR86       0.1862
     33  C         37.5350   38.0410    2.8260 C.2    86  THR86       0.2287
     34  O         36.6290   37.2240    2.6590 O.2    86  THR86      -0.2866
     35  CB        37.2240   38.5200    5.2770 C.3    86  THR86       0.1770
     36  OG1       36.9790   39.5390    6.2620 O.3    86  THR86      -0.2211
     37  CG2       38.5020   37.8590    5.7360 C.3    86  THR86       0.0375
     38  N         37.4350   32.8930    5.9120 N.3   130  TRP130     -0.1227
     39  CA        38.2340   33.0830    7.1170 C.3   130  TRP130      0.1737
     40  C         39.3470   32.0350    7.1770 C.2   130  TRP130      0.2596
     41  O         39.5100   31.2430    6.2480 O.2   130  TRP130     -0.2718
     42  CB        37.3260   33.0780    8.3640 C.3   130  TRP130      0.0564
     43  CG        36.4470   34.2980    8.4710 C.ar  130  TRP130      0.0003
     44  CD1       36.3860   35.3430    7.6010 C.ar  130  TRP130      0.0946
     45  CD2       35.5200   34.6020    9.5180 C.ar  130  TRP130      0.0152
     46  NE1       35.4760   36.2730    8.0320 N.ar  130  TRP130     -0.2442
     47  CE2       34.9290   35.8440    9.2090 C.ar  130  TRP130      0.0810
     48  CE3       35.1270   33.9500   10.6940 C.ar  130  TRP130      0.0012
     49  CZ2       33.9690   36.4450   10.0260 C.ar  130  TRP130      0.0191
     50  CZ3       34.1680   34.5440   11.4990 C.ar  130  TRP130      0.0001
     51  CH2       33.6030   35.7790   11.1630 C.ar  130  TRP130      0.0015
     52  N         40.1130   32.0410    8.2610 N.am  131  SER131     -0.1952
     53  CA        41.4640   31.4950    8.2550 C.3   131  SER131      0.1924
     54  C         41.5330   29.9740    8.2390 C.2   131  SER131      0.2314
     55  O         40.5350   29.2790    8.4630 O.2   131  SER131     -0.2863
     56  CB        42.2500   32.0410    9.4520 C.3   131  SER131      0.2116
     57  OG        42.2270   33.4590    9.4660 O.3   131  SER131     -0.2180
     58  N         29.1150   32.7990   21.4780 N.3   209  ASN209     -0.1240
     59  CA        30.0720   32.9970   20.4000 C.3   209  ASN209      0.1653
     60  C         30.3480   31.6610   19.7360 C.2   209  ASN209      0.2266
     61  O         31.1370   30.8590   20.2340 O.2   209  ASN209     -0.2867
     62  CB        31.3710   33.6250   20.9250 C.3   209  ASN209      0.1155
     63  CG        32.3700   33.9350   19.8130 C.2   209  ASN209      0.2627
     64  OD1       32.0600   33.8140   18.6290 O.2   209  ASN209     -0.2716
     65  ND2       33.5770   34.3550   20.2010 N.am  209  ASN209     -0.0877
     66  N         36.3300   27.0170   13.0110 N.3   213  ARG213     -0.1231
     67  CA        37.2170   27.7070   12.0970 C.3   213  ARG213      0.1694
     68  C         38.7050   27.4740   12.3350 C.2   213  ARG213      0.2592
     69  O         39.1010   26.6570   13.1660 O.2   213  ARG213     -0.2718
     70  CB        36.8820   29.2020   12.1330 C.3   213  ARG213      0.0321
     71  CG        37.0810   29.9320   13.4500 C.3   213  ARG213      0.0489
     72  CD        36.7160   31.3970   13.2830 C.3   213  ARG213      0.2205
     73  NE        36.7690   32.2110   14.4980 N.pl3 213  ARG213     -0.0865
     74  CZ        35.7190   32.8000   15.0750 C.cat 213  ARG213      0.5346
     75  NH1       34.4940   32.6480   14.5890 N.pl3 213  ARG213      0.1354
     76  NH2       35.8980   33.5480   16.1610 N.pl3 213  ARG213      0.1354
     77  N         39.5180   28.1750   11.5500 N.am  214  ASP214     -0.1974
     78  CA        40.9740   28.1290   11.6530 C.3   214  ASP214      0.1709
     79  C         41.5430   26.7060   11.6440 C.2   214  ASP214      0.2293
     80  O         42.3540   26.3700   12.5080 O.2   214  ASP214     -0.2864
     81  CB        41.4340   28.8610   12.9250 C.3   214  ASP214      0.1436
     82  CG        40.9150   30.2930   13.0140 C.2   214  ASP214      0.3671
     83  OD1       40.2460   30.7860   12.0710 O.co2 214  ASP214     -0.2456
     84  OD2       41.1530   31.0100   14.0090 O.co2 214  ASP214     -0.2456
     85  N         39.6930   25.6510   15.7410 N.3   229  GLU229     -0.1245
     86  CA        38.9170   26.3550   16.7550 C.3   229  GLU229      0.1567
     87  C         37.4780   25.8520   16.6720 C.2   229  GLU229      0.2260
     88  O         36.8930   25.7970   15.5990 O.2   229  GLU229     -0.2867
     89  CB        38.9400   27.8880   16.5690 C.3   229  GLU229      0.0388
     90  CG        37.7790   28.5860   17.2930 C.3   229  GLU229      0.1160
     91  CD        37.9960   30.0560   17.6150 C.2   229  GLU229      0.3649
     92  OE1       38.7330   30.7370   16.8760 O.co2 229  GLU229     -0.2457
     93  OE2       37.3930   30.5460   18.6050 O.co2 229  GLU229     -0.2457
     94  N         36.4090   31.5680   23.0360 N.3   307  GLU307     -0.1245
     95  CA        37.1790   31.8540   21.8350 C.3   307  GLU307      0.1567
     96  C         38.6620   31.5690   22.0100 C.2   307  GLU307      0.2260
     97  O         39.4130   32.4150   22.5130 O.2   307  GLU307     -0.2867
     98  CB        36.9710   33.3130   21.4000 C.3   307  GLU307      0.0388
     99  CG        37.4760   33.6020   19.9920 C.3   307  GLU307      0.1160
    100  CD        37.2510   35.0380   19.5590 C.2   307  GLU307      0.3649
    101  OE1       38.1670   35.8700   19.7500 O.co2 307  GLU307     -0.2457
    102  OE2       36.1620   35.3290   19.0210 O.co2 307  GLU307     -0.2457
    103  N         41.5560   30.5600   19.3700 N.3   309  ALA309     -0.1231
    104  CA        41.6700   30.6830   17.9200 C.3   309  ALA309      0.1694
    105  C         42.9960   30.1950   17.3750 C.2   309  ALA309      0.2591
    106  O         43.9300   29.9080   18.1280 O.2   309  ALA309     -0.2718
    107  CB        41.4830   32.1500   17.5220 C.3   309  ALA309      0.0304
    108  N         43.0560   30.1140   16.0440 N.am  310  ARG310     -0.1980
    109  CA        44.2880   29.8470   15.3140 C.3   310  ARG310      0.1597
    110  C         45.0290   28.6340   15.8520 C.2   310  ARG310      0.2287
    111  O         46.2400   28.6880   16.1270 O.2   310  ARG310     -0.2864
    112  CB        45.1740   31.0930   15.3230 C.3   310  ARG310      0.0334
    113  CG        44.5460   32.2570   14.5900 C.3   310  ARG310      0.0492
    114  CD        45.5100   33.0230   13.7060 C.3   310  ARG310      0.2205
    115  NE        45.9220   32.2440   12.5570 N.pl3 310  ARG310     -0.0865
    116  CZ        46.9710   32.4910   11.7870 C.cat 310  ARG310      0.5346
    117  NH1       47.7820   33.5210   12.0070 N.pl3 310  ARG310      0.1354
    118  NH2       47.2080   31.6770   10.7770 N.pl3 310  ARG310      0.1354
    119  N         41.9670   36.3930   23.2990 N.3   327  ARG327     -0.1245
    120  CA        41.8660   37.7710   23.7740 C.3   327  ARG327      0.1563
    121  C         41.3440   37.8220   25.2080 C.2   327  ARG327      0.2260
    122  O         40.2850   37.2810   25.5080 O.2   327  ARG327     -0.2867
    123  CB        40.9240   38.5700   22.8670 C.3   327  ARG327      0.0307
    124  CG        41.3460   38.6320   21.4010 C.3   327  ARG327      0.0489
    125  CD        40.2560   39.2100   20.4920 C.3   327  ARG327      0.2205
    126  NE        40.6740   39.3100   19.0960 N.pl3 327  ARG327     -0.0865
    127  CZ        41.4470   40.2760   18.5880 C.cat 327  ARG327      0.5346
    128  NH1       41.9050   41.2530   19.3580 N.pl3 327  ARG327      0.1354
    129  NH2       41.7650   40.2650   17.2950 N.pl3 327  ARG327      0.1354
    130  N         37.6730   38.6650   26.2110 N.3   330  LYS330     -0.1245
    131  CA        36.6340   37.6400   26.1460 C.3   330  LYS330      0.1561
    132  C         36.7710   36.5790   27.2530 C.2   330  LYS330      0.2260
    133  O         36.0020   35.6200   27.3000 O.2   330  LYS330     -0.2867
    134  CB        36.6460   36.9870   24.7580 C.3   330  LYS330      0.0271
    135  CG        36.3410   37.9730   23.6280 C.3   330  LYS330      0.0035
    136  CD        36.0740   37.2890   22.2840 C.3   330  LYS330      0.0206
    137  CE        35.8580   38.3090   21.1610 C.3   330  LYS330      0.1093
    138  NZ        34.4660   38.8280   21.1380 N.3   330  LYS330     -0.1314
    139  N         48.4930   40.7040   16.7610 N.3   378  TYR378     -0.1227
    140  CA        47.6140   39.5960   17.1290 C.3   378  TYR378      0.1736
    141  C         47.8620   38.3970   16.1840 C.2   378  TYR378      0.2596
    142  O         48.5950   38.5090   15.1960 O.2   378  TYR378     -0.2718
    143  CB        46.1330   40.0330   17.0660 C.3   378  TYR378      0.0548
    144  CG        45.2000   38.9830   17.6180 C.ar  378  TYR378     -0.0200
    145  CD1       45.2010   38.6860   18.9680 C.ar  378  TYR378     -0.0009
    146  CD2       44.3670   38.2420   16.7840 C.ar  378  TYR378     -0.0009
    147  CE1       44.3830   37.7030   19.4900 C.ar  378  TYR378      0.0417
    148  CE2       43.5390   37.2550   17.2930 C.ar  378  TYR378      0.0417
    149  CZ        43.5530   36.9880   18.6490 C.ar  378  TYR378      0.1957
    150  OH        42.7540   36.0050   19.1860 O.3   378  TYR378     -0.2866
    151  N         47.2620   37.2510   16.4980 N.am  379  SER379     -0.1952
    152  CA        47.2370   36.1020   15.5930 C.3   379  SER379      0.1924
    153  C         48.6150   35.4270   15.4860 C.2   379  SER379      0.2314
    154  O         49.0030   34.9140   14.4330 O.2   379  SER379     -0.2863
    155  CB        46.6940   36.5120   14.2150 C.3   379  SER379      0.2116
    156  OG        45.6270   35.6750   13.8130 O.3   379  SER379     -0.2180
    157  N         50.2500   39.3900   12.5710 N.3   396  TYR396     -0.1241
    158  CA        49.9230   40.6200   11.8540 C.3   396  TYR396      0.1605
    159  C         50.0450   41.8240   12.7830 C.2   396  TYR396      0.2264
    160  O         49.8840   41.7000   13.9960 O.2   396  TYR396     -0.2867
    161  CB        48.5540   40.5220   11.1530 C.3   396  TYR396      0.0534
    162  CG        47.2900   40.8120   11.9590 C.ar  396  TYR396     -0.0201
    163  CD1       46.8460   42.1210   12.1660 C.ar  396  TYR396     -0.0009
    164  CD2       46.4940   39.7690   12.4410 C.ar  396  TYR396     -0.0009
    165  CE1       45.6610   42.3820   12.8690 C.ar  396  TYR396      0.0417
    166  CE2       45.3170   40.0190   13.1340 C.ar  396  TYR396      0.0417
    167  CZ        44.9060   41.3210   13.3500 C.ar  396  TYR396      0.1957
    168  OH        43.7320   41.5470   14.0430 O.3   396  TYR396     -0.2866
    169  N         43.0840   46.4320   12.0020 N.3   400  ARG400     -0.1245
    170  CA        42.3170   46.6560   10.7830 C.3   400  ARG400      0.1563
    171  C         41.5040   47.9390   10.8480 C.2   400  ARG400      0.2260
    172  O         40.8340   48.2010   11.8440 O.2   400  ARG400     -0.2867
    173  CB        41.3360   45.4950   10.5720 C.3   400  ARG400      0.0307
    174  CG        41.9780   44.1610   10.2640 C.3   400  ARG400      0.0489
    175  CD        40.9970   43.0160   10.3140 C.3   400  ARG400      0.2205
    176  NE        40.0030   43.1230    9.2480 N.pl3 400  ARG400     -0.0865
    177  CZ        38.8450   42.4750    9.2280 C.cat 400  ARG400      0.5346
    178  NH1       38.5200   41.6270   10.1940 N.pl3 400  ARG400      0.1354
    179  NH2       38.0100   42.6560    8.2090 N.pl3 400  ARG400      0.1354
@<TRIPOS>BOND
     1    34    33    2
     2    33    32    1
     3    31    32    1
     4    32    35    1
     5    25    24    1
     6    25    26    2
     7    24    23    1
     8    24    27    1
     9    35    37    1
    10    35    36    1
    11    30    28    1
    12    38    39    1
    13    27    28    1
    14    41    40    2
    15    13    14   ar
    16    13    11   ar
    17    14    12   ar
    18    28    29    1
    19    39    40    1
    20    39    42    1
    21    11     8   ar
    22    40    52   am
    23    12    10   ar
    24     1     2    1
    25    18    17    2
    26    44    46   ar
    27    44    43   ar
    28    46    47   ar
    29     8    10   ar
    30     8     6   ar
    31    10     9   ar
    32   179   177    1
    33    54    53    1
    34    54    55    2
    35     4     3    2
    36    53    52    1
    37    53    56    1
    38    42    43    1
    39    17    16    1
    40    43    45   ar
    41     2     3    1
    42     2     5    1
    43     3    15   am
    44     6     5    1
    45     6     7   ar
    46    47    45   ar
    47    47    49   ar
    48     9     7   ar
    49   177   176    2
    50   177   178    1
    51   176   175    1
    52    15    16    1
    53    56    57    1
    54    45    48   ar
    55    16    19    1
    56    19    20    1
    57    49    51   ar
    58   174   175    1
    59   174   173    1
    60   173   170    1
    61    48    50   ar
    62   118   116    1
    63   170   171    1
    64   170   169    1
    65   171   172    2
    66   161   158    1
    67   161   162    1
    68    51    50   ar
    69    20    22   ar
    70    20    21   ar
    71    77    78    1
    72    77    68   am
    73    79    78    1
    74    79    80    2
    75    78    81    1
    76   116   117    1
    77   116   115    2
    78   158   157    1
    79   158   159    1
    80   162   163   ar
    81   162   164   ar
    82    83    82   ar
    83    67    70    1
    84    67    68    1
    85    67    66    1
    86    70    71    1
    87   163   165   ar
    88    68    69    2
    89   164   166   ar
    90   115   114    1
    91   159   160    2
    92   165   167   ar
    93    81    82    1
    94    82    84   ar
    95   166   167   ar
    96    72    71    1
    97    72    73    1
    98   167   168    1
    99   114   113    1
   100   156   155    1
   101   155   152    1
   102   154   153    2
   103    73    74    2
   104    75    74    1
   105   113   112    1
   106    74    76    1
   107   142   141    2
   108   109   112    1
   109   109   110    1
   110   109   108    1
   111   153   152    1
   112   152   151    1
   113    88    87    2
   114    85    86    1
   115   110   111    2
   116   108   105   am
   117   141   151   am
   118   141   140    1
   119    89    86    1
   120    89    90    1
   121    87    86    1
   122   139   140    1
   123   146   148   ar
   124   146   144   ar
   125    92    91   ar
   126   143   140    1
   127   143   144    1
   128    90    91    1
   129   148   149   ar
   130   129   127    1
   131   105   104    1
   132   105   106    2
   133   107   104    1
   134    91    93   ar
   135   144   145   ar
   136   104   103    1
   137   127   126    2
   138   127   128    1
   139    64    63    2
   140   149   150    1
   141   149   147   ar
   142   145   147   ar
   143   102   100   ar
   144   126   125    1
   145   100   101   ar
   146   100    99    1
   147    60    61    2
   148    60    59    1
   149    63    65   am
   150    63    62    1
   151    99    98    1
   152    59    62    1
   153    59    58    1
   154   125   124    1
   155   138   137    1
   156   137   136    1
   157    98    95    1
   158   124   123    1
   159    95    96    1
   160    95    94    1
   161    96    97    2
   162   136   135    1
   163   123   120    1
   164   119   120    1
   165   135   134    1
   166   120   121    1
   167   134   131    1
   168   121   122    2
   169   131   130    1
   170   131   132    1
   171   132   133    2
