@<TRIPOS>MOLECULE
tmp/1ptrA00.pdb
 91 92 0 0 0
SMALL
GASTEIGER

@<TRIPOS>ATOM
      1  N         12.4080   27.7080   31.5200 N.3     8  TYR8       -0.1227
      2  CA        13.5140   27.5620   30.5930 C.3     8  TYR8        0.1736
      3  C         13.2670   28.3650   29.3490 C.2     8  TYR8        0.2595
      4  O         12.1400   28.5350   28.8730 O.2     8  TYR8       -0.2718
      5  CB        13.7210   26.0980   30.2180 C.3     8  TYR8        0.0548
      6  CG        14.1210   25.2570   31.4200 C.ar    8  TYR8       -0.0200
      7  CD1       13.1470   24.8230   32.3130 C.ar    8  TYR8       -0.0009
      8  CD2       15.4570   24.9300   31.6330 C.ar    8  TYR8       -0.0009
      9  CE1       13.5020   24.0600   33.4210 C.ar    8  TYR8        0.0417
     10  CE2       15.8210   24.1610   32.7380 C.ar    8  TYR8        0.0417
     11  CZ        14.8370   23.7320   33.6310 C.ar    8  TYR8        0.1957
     12  OH        15.1760   22.9720   34.7360 O.3     8  TYR8       -0.2866
     13  N         14.4040   28.8790   28.9010 N.am    9  MET9       -0.1965
     14  CA        14.4500   29.7770   27.7730 C.3     9  MET9        0.1736
     15  C         14.7890   29.1210   26.4530 C.2     9  MET9        0.2617
     16  O         14.5830   29.7260   25.4070 O.2     9  MET9       -0.2715
     17  CB        15.4450   30.8990   28.0620 C.3     9  MET9        0.0427
     18  CG        15.0130   31.7420   29.2440 C.3     9  MET9        0.0599
     19  SD        13.2710   32.2110   29.1790 S.3     9  MET9       -0.1393
     20  CE        13.1590   33.1200   27.6710 C.3     9  MET9        0.0692
     21  N         15.3090   27.9050   26.4520 N.am   10  SER10      -0.1936
     22  CA        15.5510   27.1800   25.2190 C.3    10  SER10       0.2040
     23  C         15.2920   25.7200   25.5420 C.2    10  SER10       0.2485
     24  O         15.2630   25.3810   26.7320 O.2    10  SER10      -0.2729
     25  CB        16.9810   27.4100   24.7750 C.3    10  SER10       0.2129
     26  OG        17.9040   27.0520   25.7900 O.3    10  SER10      -0.2179
     27  N         15.0290   24.8290   24.5910 N.am   11  PRO11      -0.2715
     28  CA        14.7180   23.4410   24.8750 C.3    11  PRO11       0.1536
     29  C         15.8070   22.7110   25.6380 C.2    11  PRO11       0.2599
     30  O         16.9580   22.5810   25.1960 O.2    11  PRO11      -0.2715
     31  CB        14.4200   22.8360   23.5270 C.3    11  PRO11       0.0310
     32  CG        15.0610   23.7810   22.5340 C.3    11  PRO11       0.0237
     33  CD        14.8770   25.1330   23.1800 C.3    11  PRO11       0.0939
     34  N         15.3750   22.2880   26.8210 N.am   12  THR12      -0.1951
     35  CA        16.1660   21.6180   27.8290 C.3    12  THR12       0.1897
     36  C         15.5220   20.2580   28.0650 C.2    12  THR12       0.2313
     37  O         14.3010   20.0770   28.0010 O.2    12  THR12      -0.2863
     38  CB        16.1450   22.4490   29.1060 C.3    12  THR12       0.1794
     39  OG1       16.4090   23.7800   28.6960 O.3    12  THR12      -0.2208
     40  CG2       17.1950   22.0490   30.1400 C.3    12  THR12       0.0378
     41  N         12.2840   15.9680   26.7040 N.3    20  LEU20      -0.1231
     42  CA        12.1360   17.4050   26.7780 C.3    20  LEU20       0.1693
     43  C         11.3240   17.8640   27.9830 C.2    20  LEU20       0.2592
     44  O         10.3270   17.2430   28.3680 O.2    20  LEU20      -0.2718
     45  CB        11.4620   17.8910   25.4970 C.3    20  LEU20       0.0284
     46  CG        11.2890   19.3860   25.2240 C.3    20  LEU20       0.0019
     47  CD1       12.6480   20.0470   24.9420 C.3    20  LEU20       0.0001
     48  CD2       10.3640   19.5480   24.0400 C.3    20  LEU20       0.0001
     49  N         11.7480   18.9580   28.5870 N.am   21  LEU21      -0.1966
     50  CA        11.0370   19.6010   29.6540 C.3    21  LEU21       0.1728
     51  C          9.9780   20.4290   28.9420 C.2    21  LEU21       0.2616
     52  O         10.2040   21.5640   28.5220 O.2    21  LEU21      -0.2715
     53  CB        11.9860   20.4830   30.4460 C.3    21  LEU21       0.0311
     54  CG        13.1030   19.7570   31.1990 C.3    21  LEU21       0.0022
     55  CD1       13.8710   20.7560   32.0350 C.3    21  LEU21       0.0001
     56  CD2       12.5230   18.6450   32.0580 C.3    21  LEU21       0.0001
     57  N          8.7920   19.8500   28.7950 N.am   22  TRP22      -0.1960
     58  CA         7.7070   20.4270   28.0100 C.3    22  TRP22       0.1771
     59  C          7.1290   21.6990   28.5560 C.2    22  TRP22       0.2620
     60  O          7.1040   21.8780   29.7770 O.2    22  TRP22      -0.2715
     61  CB         6.5310   19.4680   27.8980 C.3    22  TRP22       0.0590
     62  CG         6.9140   18.0450   27.5800 C.ar   22  TRP22       0.0006
     63  CD1        7.2670   17.6380   26.3170 C.ar   22  TRP22       0.0946
     64  CD2        6.9490   17.0490   28.5040 C.ar   22  TRP22       0.0152
     65  NE1        7.5300   16.3580   26.4510 N.ar   22  TRP22      -0.2442
     66  CE2        7.3620   15.9670   27.7230 C.ar   22  TRP22       0.0810
     67  CE3        6.7010   16.8990   29.8550 C.ar   22  TRP22       0.0012
     68  CZ2        7.5350   14.7130   28.2890 C.ar   22  TRP22       0.0191
     69  CZ3        6.8720   15.6410   30.4230 C.ar   22  TRP22       0.0001
     70  CH2        7.2870   14.5630   29.6500 C.ar   22  TRP22       0.0015
     71  N          6.6300   22.5730   27.6910 N.am   23  GLY23      -0.1940
     72  CA         5.8720   23.7080   28.1920 C.3    23  GLY23       0.2014
     73  C          6.5140   25.0500   27.9500 C.2    23  GLY23       0.2638
     74  O          7.6710   25.1490   27.5580 O.2    23  GLY23      -0.2714
     75  N          5.7520   26.0940   28.2000 N.am   24  LEU24      -0.1977
     76  CA         6.2210   27.4420   28.0020 C.3    24  LEU24       0.1596
     77  C          6.9100   27.9880   29.2310 C.2    24  LEU24       0.2287
     78  O          7.8560   28.7780   29.1310 O.2    24  LEU24      -0.2864
     79  CB         5.0380   28.3260   27.6270 C.3    24  LEU24       0.0297
     80  CG         4.3700   28.0290   26.2690 C.3    24  LEU24       0.0022
     81  CD1        3.0320   28.7470   26.2360 C.3    24  LEU24       0.0001
     82  CD2        5.2620   28.4570   25.1070 C.3    24  LEU24       0.0001
     83  N          8.7260   24.3700   33.1910 N.3    27  GLN27      -0.1245
     84  CA         8.9080   23.0830   32.5480 C.3    27  GLN27       0.1566
     85  C          9.5480   22.0080   33.4040 C.2    27  GLN27       0.2260
     86  O          9.3760   20.8040   33.1510 O.2    27  GLN27      -0.2867
     87  CB         9.7590   23.2180   31.3090 C.3    27  GLN27       0.0367
     88  CG         9.2210   24.1530   30.2500 C.3    27  GLN27       0.0905
     89  CD         9.7660   25.5680   30.3350 C.2    27  GLN27       0.2608
     90  OE1       10.0590   26.0810   31.4130 O.2    27  GLN27      -0.2717
     91  NE2        9.9220   26.2680   29.2290 N.am   27  GLN27      -0.0878
@<TRIPOS>BOND
     1    32    33    1
     2    32    31    1
     3    33    27    1
     4    31    28    1
     5    48    46    1
     6    27    28    1
     7    27    23   am
     8    25    22    1
     9    25    26    1
    10    28    29    1
    11    47    46    1
    12    82    80    1
    13    30    29    2
    14    22    23    1
    15    22    21    1
    16    46    45    1
    17    16    15    2
    18    45    42    1
    19    23    24    2
    20    29    34   am
    21    81    80    1
    22    80    79    1
    23    63    65   ar
    24    63    62   ar
    25    65    66   ar
    26    21    15   am
    27    15    14    1
    28    41    42    1
    29    42    43    1
    30    34    35    1
    31    74    73    2
    32    62    61    1
    33    62    64   ar
    34    79    76    1
    35    20    19    1
    36    71    72    1
    37    71    59   am
    38    66    68   ar
    39    66    64   ar
    40    14    17    1
    41    14    13    1
    42    35    36    1
    43    35    38    1
    44    61    58    1
    45    73    72    1
    46    73    75   am
    47    43    44    2
    48    43    49   am
    49    37    36    2
    50    76    75    1
    51    76    77    1
    52    58    59    1
    53    58    57    1
    54    17    18    1
    55    68    70   ar
    56    64    67   ar
    57    52    51    2
    58    59    60    2
    59    49    50    1
    60    39    38    1
    61    57    51   am
    62     4     3    2
    63    13     3   am
    64    51    50    1
    65    38    40    1
    66    78    77    2
    67    19    18    1
    68    91    89   am
    69     3     2    1
    70    70    69   ar
    71    50    53    1
    72    67    69   ar
    73     5     2    1
    74     5     6    1
    75    88    89    1
    76    88    87    1
    77    89    90    2
    78    53    54    1
    79     2     1    1
    80    54    55    1
    81    54    56    1
    82    87    84    1
    83     6     8   ar
    84     6     7   ar
    85     8    10   ar
    86     7     9   ar
    87    84    83    1
    88    84    85    1
    89    10    11   ar
    90    86    85    2
    91     9    11   ar
    92    11    12    1
