@<TRIPOS>MOLECULE
tmp/1pttA00.pdb
 176 170 0 0 0
SMALL
GASTEIGER

@<TRIPOS>ATOM
      1  N         38.8960   15.4950   49.7300 N.3    40  LYS40      -0.1245
      2  CA        39.6410   15.4400   48.4790 C.3    40  LYS40       0.1561
      3  C         40.7630   16.4210   48.4060 C.2    40  LYS40       0.2260
      4  O         41.8890   16.0490   48.0620 O.2    40  LYS40      -0.2867
      5  CB        38.7220   15.5880   47.2810 C.3    40  LYS40       0.0271
      6  CG        39.4450   15.4760   45.9810 C.3    40  LYS40       0.0035
      7  CD        38.5030   15.5030   44.7910 C.3    40  LYS40       0.0206
      8  CE        39.3090   15.3830   43.4920 C.3    40  LYS40       0.1093
      9  NZ        38.3520   15.3310   42.3730 N.3    40  LYS40      -0.1314
     10  N         44.3650   16.3020   50.5140 N.3    43  ASN43      -0.1225
     11  CA        45.3440   15.3000   50.0880 C.3    43  ASN43       0.1785
     12  C         46.0780   15.6820   48.8360 C.2    43  ASN43       0.2597
     13  O         45.5000   15.9320   47.7910 O.2    43  ASN43      -0.2718
     14  CB        44.6750   13.9520   49.8080 C.3    43  ASN43       0.1169
     15  CG        44.2460   13.2150   51.0820 C.2    43  ASN43       0.2627
     16  OD1       45.0310   13.0350   52.0500 O.2    43  ASN43      -0.2716
     17  ND2       42.9950   12.7740   51.0830 N.am   43  ASN43      -0.0877
     18  N         47.3860   15.6370   48.9380 N.am   44  ARG44      -0.1966
     19  CA        48.2640   16.0050   47.8450 C.3    44  ARG44       0.1729
     20  C         48.2790   14.9900   46.7260 C.2    44  ARG44       0.2616
     21  O         48.2170   15.3670   45.6080 O.2    44  ARG44      -0.2715
     22  CB        49.6750   16.1870   48.4310 C.3    44  ARG44       0.0348
     23  CG        50.7300   16.4210   47.4270 C.3    44  ARG44       0.0492
     24  CD        52.0540   16.4100   48.0940 C.3    44  ARG44       0.2205
     25  NE        52.1160   17.5700   48.9510 N.pl3  44  ARG44      -0.0865
     26  CZ        52.1370   18.7830   48.4490 C.cat  44  ARG44       0.5346
     27  NH1       52.1030   18.8980   47.1340 N.pl3  44  ARG44       0.1354
     28  NH2       52.2980   19.8500   49.2210 N.pl3  44  ARG44       0.1354
     29  N         48.4520   13.6970   47.0400 N.am   45  TYR45      -0.1960
     30  CA        48.4730   12.5790   46.0450 C.3    45  TYR45       0.1771
     31  C         47.2570   11.6630   46.2300 C.2    45  TYR45       0.2619
     32  O         46.9870   11.1640   47.3270 O.2    45  TYR45      -0.2715
     33  CB        49.7240   11.7620   46.2510 C.3    45  TYR45       0.0574
     34  CG        50.9990   12.5450   45.9490 C.ar   45  TYR45      -0.0198
     35  CD1       51.2770   13.0310   44.6560 C.ar   45  TYR45      -0.0009
     36  CD2       51.9390   12.7610   46.9190 C.ar   45  TYR45      -0.0009
     37  CE1       52.4480   13.6910   44.3740 C.ar   45  TYR45       0.0417
     38  CE2       53.0830   13.4280   46.6300 C.ar   45  TYR45       0.0417
     39  CZ        53.3380   13.8890   45.3650 C.ar   45  TYR45       0.1957
     40  OH        54.5300   14.5630   45.1240 O.3    45  TYR45      -0.2866
     41  N         46.5540   11.3920   45.1440 N.am   46  ARG46      -0.1963
     42  CA        45.3640   10.5580   45.2090 C.3    46  ARG46       0.1729
     43  C         45.6990    9.1050   45.4840 C.2    46  ARG46       0.2616
     44  O         44.8320    8.2880   45.8080 O.2    46  ARG46      -0.2715
     45  CB        44.5420   10.6910   43.9290 C.3    46  ARG46       0.0348
     46  CG        45.0510    9.9560   42.7450 C.3    46  ARG46       0.0492
     47  CD        44.1090   10.1000   41.5310 C.3    46  ARG46       0.2205
     48  NE        44.4090    9.1310   40.4640 N.pl3  46  ARG46      -0.0865
     49  CZ        45.3600    9.2860   39.5280 C.cat  46  ARG46       0.5346
     50  NH1       46.1020   10.3930   39.4830 N.pl3  46  ARG46       0.1354
     51  NH2       45.6480    8.2810   38.6950 N.pl3  46  ARG46       0.1354
     52  N         46.9770    8.7830   45.3620 N.am   47  ASP47      -0.1957
     53  CA        47.4090    7.4450   45.6130 C.3    47  ASP47       0.1840
     54  C         48.2420    7.2290   46.8580 C.2    47  ASP47       0.2621
     55  O         48.9690    6.2510   46.9240 O.2    47  ASP47      -0.2715
     56  CB        48.0940    6.8710   44.3800 C.3    47  ASP47       0.1450
     57  CG        49.3350    7.5790   44.0180 C.2    47  ASP47       0.3671
     58  OD1       49.2740    8.7930   43.7830 O.co2  47  ASP47      -0.2456
     59  OD2       50.3560    6.8950   43.9440 O.co2  47  ASP47      -0.2456
     60  N         48.2040    8.1610   47.8160 N.am   48  VAL48      -0.1977
     61  CA        48.9070    8.0210   49.1140 C.3    48  VAL48       0.1596
     62  C         47.9690    8.5510   50.2080 C.2    48  VAL48       0.2287
     63  O         47.6720    9.7720   50.2560 O.2    48  VAL48      -0.2864
     64  CB        50.2720    8.7380   49.1800 C.3    48  VAL48       0.0276
     65  CG1       50.8990    8.5220   50.5180 C.3    48  VAL48       0.0022
     66  CG2       51.1830    8.2430   48.0770 C.3    48  VAL48       0.0022
     67  N         56.3280   21.4810   42.4360 N.3   118  LEU118     -0.1231
     68  CA        55.9720   21.8440   43.8180 C.3   118  LEU118      0.1693
     69  C         55.7860   20.5470   44.6060 C.2   118  LEU118      0.2591
     70  O         54.9520   19.7210   44.2230 O.2   118  LEU118     -0.2718
     71  CB        54.6380   22.6190   43.8600 C.3   118  LEU118      0.0284
     72  CG        54.6170   23.9640   43.1370 C.3   118  LEU118      0.0019
     73  CD1       55.5310   24.8840   43.8600 C.3   118  LEU118      0.0001
     74  CD2       55.0540   23.8310   41.6750 C.3   118  LEU118      0.0001
     75  N         56.5290   20.3310   45.6780 N.am  119  LYS119     -0.1980
     76  CA        56.3040   19.0970   46.3950 C.3   119  LYS119      0.1596
     77  C         55.7490   19.3140   47.7880 C.2   119  LYS119      0.2287
     78  O         55.1200   18.4370   48.3620 O.2   119  LYS119     -0.2864
     79  CB        57.5740   18.2650   46.4590 C.3   119  LYS119      0.0298
     80  CG        58.3720   18.2390   45.1490 C.3   119  LYS119      0.0038
     81  CD        57.8970   17.2240   44.1750 C.3   119  LYS119      0.0206
     82  CE        58.4300   15.8450   44.5560 C.3   119  LYS119      0.1093
     83  NZ        57.4730   14.7530   44.1000 N.3   119  LYS119     -0.1314
     84  N         63.9200   13.4810   45.2190 N.3   180  ASP180     -0.1225
     85  CA        62.6820   12.7210   45.1510 C.3   180  ASP180      0.1805
     86  C         63.0240   11.4130   44.4540 C.2   180  ASP180      0.2597
     87  O         63.6800   11.4080   43.4350 O.2   180  ASP180     -0.2718
     88  CB        61.5940   13.4790   44.3630 C.3   180  ASP180      0.1424
     89  CG        60.1720   13.0150   44.7130 C.2   180  ASP180      0.3668
     90  OD1       59.8730   12.7850   45.8880 O.co2 180  ASP180     -0.2456
     91  OD2       59.3400   12.8270   43.8230 O.co2 180  ASP180     -0.2456
     92  N         62.5780   10.3150   45.0340 N.am  181  PHE181     -0.1976
     93  CA        62.8710    9.0060   44.5270 C.3   181  PHE181      0.1639
     94  C         64.3610    8.7410   44.5100 C.2   181  PHE181      0.2290
     95  O         64.8630    7.9960   43.6400 O.2   181  PHE181     -0.2864
     96  CB        62.2450    8.8090   43.1840 C.3   181  PHE181      0.0560
     97  CG        60.8780    8.1810   43.2620 C.ar  181  PHE181     -0.0200
     98  CD1       59.8010    8.9210   43.5550 C.ar  181  PHE181     -0.0042
     99  CD2       60.7000    6.8500   43.0430 C.ar  181  PHE181     -0.0042
    100  CE1       58.5510    8.3530   43.6340 C.ar  181  PHE181     -0.0003
    101  CE2       59.4760    6.2710   43.1120 C.ar  181  PHE181     -0.0003
    102  CZ        58.3800    7.0270   43.4140 C.ar  181  PHE181     -0.0000
    103  N         58.0720   14.1000   53.8480 N.3   214  SER214     -0.1202
    104  CA        58.8130   14.3570   52.6470 C.3   214  SER214      0.2020
    105  C         57.6910   14.9040   51.7560 C.2   214  SER214      0.2619
    106  O         56.8630   15.6210   52.2870 O.2   214  SER214     -0.2717
    107  CB        59.4500   13.0700   52.1780 C.3   214  SER214      0.2103
    108  OG        58.4740   12.0660   52.0880 O.3   214  SER214     -0.2182
    109  N         57.6550   14.6850   50.4500 N.am  215  SER215     -0.1937
    110  CA        56.5430   15.2070   49.7080 C.3   215  SER215      0.2055
    111  C         55.2910   14.3790   49.9790 C.2   215  SER215      0.2643
    112  O         54.2250   14.9260   50.1710 O.2   215  SER215     -0.2714
    113  CB        56.8160   15.1780   48.2280 C.3   215  SER215      0.2130
    114  OG        55.6170   15.5090   47.5260 O.3   215  SER215     -0.2179
    115  N         55.3970   13.0480   49.9880 N.am  216  ALA216     -0.1963
    116  CA        54.2280   12.1700   50.2160 C.3   216  ALA216      0.1728
    117  C         54.2750   11.5300   51.5880 C.2   216  ALA216      0.2617
    118  O         53.2650   11.0410   52.0560 O.2   216  ALA216     -0.2715
    119  CB        54.1410   11.1030   49.1570 C.3   216  ALA216      0.0334
    120  N         55.4220   11.5290   52.2550 N.am  217  GLY217     -0.1940
    121  CA        55.4720   10.9420   53.5850 C.3   217  GLY217      0.2014
    122  C         55.6340    9.4200   53.6330 C.2   217  GLY217      0.2639
    123  O         55.5040    8.8220   54.7200 O.2   217  GLY217     -0.2714
    124  N         55.9920    8.7760   52.5160 N.am  218  ILE218     -0.1963
    125  CA        56.1750    7.3440   52.5270 C.3   218  ILE218      0.1727
    126  C         57.5520    6.9040   52.1200 C.2   218  ILE218      0.2617
    127  O         58.0980    6.0460   52.7610 O.2   218  ILE218     -0.2715
    128  CB        55.1740    6.6440   51.6480 C.3   218  ILE218      0.0290
    129  CG1       55.4400    6.9880   50.1990 C.3   218  ILE218      0.0022
    130  CG2       53.7260    7.0690   52.0220 C.3   218  ILE218      0.0023
    131  CD1       54.4470    6.4380   49.2660 C.3   218  ILE218      0.0001
    132  N         58.1500    7.4890   51.0930 N.am  219  GLY219     -0.1940
    133  CA        59.4750    7.0490   50.6470 C.3   219  GLY219      0.2014
    134  C         60.6970    7.4450   51.4800 C.2   219  GLY219      0.2638
    135  O         61.2420    6.6500   52.2230 O.2   219  GLY219     -0.2714
    136  N         61.1650    8.6760   51.3440 N.am  220  ARG220     -0.1977
    137  CA        62.2910    9.1250   52.1070 C.3   220  ARG220      0.1597
    138  C         61.8800    9.0350   53.5840 C.2   220  ARG220      0.2287
    139  O         62.6680    8.6450   54.4050 O.2   220  ARG220     -0.2864
    140  CB        62.6650   10.5400   51.6950 C.3   220  ARG220      0.0334
    141  CG        63.1650   10.6820   50.2770 C.3   220  ARG220      0.0492
    142  CD        63.1920   12.1220   49.8460 C.3   220  ARG220      0.2205
    143  NE        61.9110   12.6830   49.3930 N.pl3 220  ARG220     -0.0865
    144  CZ        61.7500   13.8300   48.6920 C.cat 220  ARG220      0.5346
    145  NH1       62.7770   14.5830   48.3520 N.pl3 220  ARG220      0.1354
    146  NH2       60.5390   14.2260   48.2920 N.pl3 220  ARG220      0.1354
    147  N         50.9260    3.1860   54.4380 N.3   257  MET257     -0.1230
    148  CA        51.3870    2.5910   53.1910 C.3   257  MET257      0.1702
    149  C         52.7000    3.0800   52.6300 C.2   257  MET257      0.2592
    150  O         53.2930    3.9850   53.1480 O.2   257  MET257     -0.2718
    151  CB        50.3060    2.7110   52.0780 C.3   257  MET257      0.0401
    152  CG        49.5590    4.0100   51.9350 C.3   257  MET257      0.0596
    153  SD        48.7610    4.0980   50.3310 S.3   257  MET257     -0.1393
    154  CE        47.0120    4.1960   50.7630 C.3   257  MET257      0.0692
    155  N         53.1780    2.3380   51.6310 N.am  258  GLY258     -0.1957
    156  CA        54.3740    2.5950   50.8400 C.3   258  GLY258      0.1869
    157  C         55.6990    2.8870   51.4750 C.2   258  GLY258      0.2309
    158  O         56.6170    3.3220   50.7390 O.2   258  GLY258     -0.2863
    159  N         60.1160    3.4010   48.7540 N.3   261  GLN261     -0.1245
    160  CA        59.6180    3.3520   47.3880 C.3   261  GLN261      0.1566
    161  C         60.5200    2.8930   46.2900 C.2   261  GLN261      0.2260
    162  O         60.0990    2.8940   45.1410 O.2   261  GLN261     -0.2867
    163  CB        59.2010    4.7160   46.9710 C.3   261  GLN261      0.0367
    164  CG        58.0390    5.2360   47.6560 C.3   261  GLN261      0.0905
    165  CD        56.8110    4.6000   47.1670 C.2   261  GLN261      0.2608
    166  OE1       56.3900    4.7350   45.9870 O.2   261  GLN261     -0.2717
    167  NE2       56.2060    3.8640   48.0550 N.am  261  GLN261     -0.0878
    168  N         66.4110    2.4640   47.6560 N.3   265  GLN265     -0.1245
    169  CA        66.1460    3.0440   48.9760 C.3   265  GLN265      0.1566
    170  C         66.2300    1.9310   50.0380 C.2   265  GLN265      0.2260
    171  O         66.6820    2.1670   51.1380 O.2   265  GLN265     -0.2867
    172  CB        64.7580    3.7100   49.0250 C.3   265  GLN265      0.0367
    173  CG        64.7500    5.1730   48.5200 C.3   265  GLN265      0.0905
    174  CD        63.3650    5.8420   48.4550 C.2   265  GLN265      0.2608
    175  OE1       62.3710    5.4180   49.1240 O.2   265  GLN265     -0.2717
    176  NE2       63.2960    6.9200   47.6830 N.am  265  GLN265     -0.0878
@<TRIPOS>BOND
     1    51    49    1
     2    50    49    1
     3    49    48    2
     4    48    47    1
     5    47    46    1
     6    74    72    1
     7     9     8    1
     8    67    68    1
     9    46    45    1
    10    99   101   ar
    11    99    97   ar
    12   101   102   ar
    13    72    71    1
    14    72    73    1
    15    96    97    1
    16    96    93    1
    17    97    98   ar
    18   102   100   ar
    19    87    86    2
    20     8     7    1
    21    98   100   ar
    22    95    94    2
    23    58    57   ar
    24    68    71    1
    25    68    69    1
    26    91    89   ar
    27    45    42    1
    28    59    57   ar
    29    57    56    1
    30    83    82    1
    31    81    82    1
    32    81    80    1
    33    70    69    2
    34    88    89    1
    35    88    85    1
    36    37    35   ar
    37    37    39   ar
    38    56    53    1
    39    86    92   am
    40    86    85    1
    41    94    93    1
    42    93    92    1
    43    69    75   am
    44    35    34   ar
    45    89    90   ar
    46     7     6    1
    47    40    39    1
    48   162   161    2
    49    41    42    1
    50    41    31   am
    51    80    79    1
    52    85    84    1
    53    42    43    1
    54    52    43   am
    55    52    53    1
    56    39    38   ar
    57    43    44    2
    58    21    20    2
    59    53    54    1
    60    75    76    1
    61    34    33    1
    62    34    36   ar
    63     6     5    1
    64   166   165    2
    65    30    31    1
    66    30    33    1
    67    30    29    1
    68    31    32    2
    69   161   160    1
    70    76    79    1
    71    76    77    1
    72    38    36   ar
    73    20    29   am
    74    20    19    1
    75    54    55    2
    76    54    60   am
    77   163   160    1
    78   163   164    1
    79    27    26    1
    80   165   164    1
    81   165   167   am
    82     5     2    1
    83   160   159    1
    84    23    24    1
    85    23    22    1
    86   114   113    1
    87   168   169    1
    88   176   174   am
    89    77    78    2
    90    13    12    2
    91    60    61    1
    92    19    22    1
    93    19    18    1
    94     4     3    2
    95    66    64    1
    96    24    25    1
    97   113   110    1
    98   146   144    1
    99   145   144    1
   100     3     2    1
   101    26    25    2
   102    26    28    1
   103   174   173    1
   104   174   175    2
   105     2     1    1
   106   173   172    1
   107   144   143    2
   108    12    18   am
   109    12    11    1
   110   169   172    1
   111   169   170    1
   112    61    64    1
   113    61    62    1
   114   119   116    1
   115    64    65    1
   116   131   129    1
   117   143   142    1
   118   110   111    1
   119   110   109    1
   120    14    11    1
   121    14    15    1
   122   142   141    1
   123   111   115   am
   124   111   112    2
   125   115   116    1
   126   170   171    2
   127    11    10    1
   128   129   128    1
   129    62    63    2
   130   116   117    1
   131   141   140    1
   132   153   154    1
   133   153   152    1
   134   109   105   am
   135   133   132    1
   136   133   134    1
   137   158   157    2
   138   156   157    1
   139   156   155    1
   140    15    17   am
   141    15    16    2
   142   132   126   am
   143   136   134   am
   144   136   137    1
   145   134   135    2
   146   117   118    2
   147   117   120   am
   148   155   149   am
   149   128   130    1
   150   128   125    1
   151   140   137    1
   152   105   106    2
   153   105   104    1
   154   152   151    1
   155   151   148    1
   156   108   107    1
   157   137   138    1
   158   126   125    1
   159   126   127    2
   160   107   104    1
   161   120   121    1
   162   124   125    1
   163   124   122   am
   164   149   150    2
   165   149   148    1
   166   104   103    1
   167   148   147    1
   168   138   139    2
   169   121   122    1
   170   122   123    2
