@<TRIPOS>MOLECULE
tmp/1ptuA00.pdb
 170 164 0 0 0
SMALL
GASTEIGER

@<TRIPOS>ATOM
      1  N         56.7020   -5.5550   48.5790 N.3    23  ARG23      -0.1197
      2  CA        55.5510   -4.8500   48.0350 C.3    23  ARG23       0.1779
      3  C         54.3400   -5.8220   48.0110 C.2    23  ARG23       0.2305
      4  O         53.2310   -5.4620   48.4360 O.2    23  ARG23      -0.2863
      5  CB        55.8410   -4.3050   46.5980 C.2    23  ARG23      -0.0007
      6  CG        56.6390   -3.0220   46.5060 C.2    23  ARG23       0.0176
      7  CD        56.7860   -2.4070   45.0980 C.3    23  ARG23       0.2464
      8  NE        57.0380   -0.9370   45.2420 N.pl3  23  ARG23      -0.0815
      9  CZ        57.1970    0.0270   44.2940 C.cat  23  ARG23       0.5349
     10  NH1       57.1540   -0.2130   42.9670 N.pl3  23  ARG23       0.1354
     11  NH2       57.4080    1.2870   44.7070 N.pl3  23  ARG23       0.1354
     12  N         39.0130   15.5550   49.2640 N.3    40  LYS40      -0.1245
     13  CA        39.7870   15.5590   48.0310 C.3    40  LYS40       0.1561
     14  C         40.8980   16.6030   47.9590 C.2    40  LYS40       0.2260
     15  O         42.0210   16.2970   47.6180 O.2    40  LYS40      -0.2867
     16  CB        38.8510   15.7110   46.8330 C.3    40  LYS40       0.0271
     17  CG        39.5760   16.0630   45.5470 C.3    40  LYS40       0.0035
     18  CD        38.7740   15.6590   44.3310 C.3    40  LYS40       0.0206
     19  CE        39.6700   15.6000   43.1010 C.3    40  LYS40       0.1093
     20  NZ        38.9960   14.9280   41.9520 N.3    40  LYS40      -0.1314
     21  N         44.4350   16.3580   49.8690 N.3    43  ASN43      -0.1225
     22  CA        45.4350   15.3300   49.5550 C.3    43  ASN43       0.1785
     23  C         46.2640   15.7070   48.4070 C.2    43  ASN43       0.2597
     24  O         45.7340   16.0110   47.3610 O.2    43  ASN43      -0.2718
     25  CB        44.8040   13.9470   49.2600 C.3    43  ASN43       0.1169
     26  CG        44.2030   13.2830   50.5140 C.2    43  ASN43       0.2627
     27  OD1       44.8610   13.1480   51.5440 O.2    43  ASN43      -0.2716
     28  ND2       42.9330   12.9450   50.4460 N.am   43  ASN43      -0.0877
     29  N         47.5750   15.7270   48.6010 N.am   44  ARG44      -0.1966
     30  CA        48.4690   16.0800   47.5020 C.3    44  ARG44       0.1729
     31  C         48.4940   15.0780   46.3690 C.2    44  ARG44       0.2616
     32  O         48.5360   15.4830   45.2070 O.2    44  ARG44      -0.2715
     33  CB        49.8810   16.3020   47.9800 C.3    44  ARG44       0.0348
     34  CG        50.7290   16.9570   46.9340 C.3    44  ARG44       0.0492
     35  CD        52.1040   17.0550   47.4470 C.3    44  ARG44       0.2205
     36  NE        52.2270   18.2310   48.2800 N.pl3  44  ARG44      -0.0865
     37  CZ        52.3760   19.4500   47.7830 C.cat  44  ARG44       0.5346
     38  NH1       52.4190   19.6160   46.4700 N.pl3  44  ARG44       0.1354
     39  NH2       52.4390   20.4960   48.5900 N.pl3  44  ARG44       0.1354
     40  N         48.5440   13.7870   46.7090 N.am   45  TYR45      -0.1960
     41  CA        48.5590   12.7280   45.7080 C.3    45  TYR45       0.1771
     42  C         47.3580   11.8120   45.8250 C.2    45  TYR45       0.2619
     43  O         47.0040   11.2970   46.8940 O.2    45  TYR45      -0.2715
     44  CB        49.8500   11.9110   45.7460 C.3    45  TYR45       0.0574
     45  CG        51.1030   12.7220   45.4780 C.ar   45  TYR45      -0.0198
     46  CD1       51.4640   13.1180   44.1760 C.ar   45  TYR45      -0.0009
     47  CD2       51.9220   13.0980   46.5090 C.ar   45  TYR45      -0.0009
     48  CE1       52.6170   13.8640   43.9300 C.ar   45  TYR45       0.0417
     49  CE2       53.0610   13.8620   46.2700 C.ar   45  TYR45       0.0417
     50  CZ        53.4070   14.2390   44.9900 C.ar   45  TYR45       0.1957
     51  OH        54.5400   15.0320   44.8230 O.3    45  TYR45      -0.2866
     52  N         46.7990   11.5550   44.6630 N.am   46  ARG46      -0.1963
     53  CA        45.6120   10.7360   44.4530 C.3    46  ARG46       0.1729
     54  C         45.8030    9.3350   44.9620 C.2    46  ARG46       0.2616
     55  O         44.9060    8.7300   45.5100 O.2    46  ARG46      -0.2715
     56  CB        45.4200   10.7010   42.9580 C.3    46  ARG46       0.0348
     57  CG        44.2060   10.0840   42.4690 C.3    46  ARG46       0.0492
     58  CD        44.2120   10.2150   40.9750 C.3    46  ARG46       0.2205
     59  NE        45.2270    9.3860   40.3330 N.pl3  46  ARG46      -0.0865
     60  CZ        46.0360    9.7930   39.3550 C.cat  46  ARG46       0.5346
     61  NH1       46.0020   11.0480   38.8960 N.pl3  46  ARG46       0.1354
     62  NH2       46.7690    8.8870   38.7200 N.pl3  46  ARG46       0.1354
     63  N         47.0080    8.8400   44.7730 N.am   47  ASP47      -0.1957
     64  CA        47.3990    7.5010   45.1520 C.3    47  ASP47       0.1840
     65  C         48.1120    7.3000   46.5050 C.2    47  ASP47       0.2621
     66  O         48.6070    6.1890   46.7920 O.2    47  ASP47      -0.2715
     67  CB        48.2420    6.9190   44.0200 C.3    47  ASP47       0.1450
     68  CG        49.4000    7.8110   43.6230 C.2    47  ASP47       0.3671
     69  OD1       49.5510    8.9400   44.1320 O.co2  47  ASP47      -0.2456
     70  OD2       50.1890    7.3740   42.7810 O.co2  47  ASP47      -0.2456
     71  N         48.2150    8.3460   47.3290 N.am   48  VAL48      -0.1977
     72  CA        48.8610    8.1680   48.6330 C.3    48  VAL48       0.1596
     73  C         47.9710    8.7120   49.7250 C.2    48  VAL48       0.2287
     74  O         47.8250    9.9250   49.8550 O.2    48  VAL48      -0.2864
     75  CB        50.2610    8.7870   48.6760 C.3    48  VAL48       0.0276
     76  CG1       50.8810    8.5680   50.0280 C.3    48  VAL48       0.0022
     77  CG2       51.1020    8.1920   47.5350 C.3    48  VAL48       0.0022
     78  N         63.7320   13.1590   44.9520 N.3   180  ASP180     -0.1225
     79  CA        62.4760   12.4280   44.9210 C.3   180  ASP180      0.1805
     80  C         62.8040   11.1340   44.1860 C.2   180  ASP180      0.2597
     81  O         63.3940   11.1590   43.1070 O.2   180  ASP180     -0.2718
     82  CB        61.4590   13.2530   44.1290 C.3   180  ASP180      0.1424
     83  CG        60.0310   12.8910   44.4430 C.2   180  ASP180      0.3668
     84  OD1       59.7950   12.1470   45.4020 O.co2 180  ASP180     -0.2456
     85  OD2       59.1240   13.3600   43.7290 O.co2 180  ASP180     -0.2456
     86  N         62.4660   10.0070   44.7970 N.am  181  PHE181     -0.1976
     87  CA        62.7450    8.6930   44.2190 C.3   181  PHE181      0.1639
     88  C         64.2260    8.4700   44.1170 C.2   181  PHE181      0.2290
     89  O         64.7080    7.7310   43.2490 O.2   181  PHE181     -0.2864
     90  CB        62.0990    8.5560   42.8480 C.3   181  PHE181      0.0560
     91  CG        60.8820    7.6850   42.8560 C.ar  181  PHE181     -0.0200
     92  CD1       59.8000    7.9940   43.6760 C.ar  181  PHE181     -0.0042
     93  CD2       60.8200    6.5540   42.0520 C.ar  181  PHE181     -0.0042
     94  CE1       58.6740    7.1830   43.6880 C.ar  181  PHE181     -0.0003
     95  CE2       59.7060    5.7390   42.0530 C.ar  181  PHE181     -0.0003
     96  CZ        58.6230    6.0490   42.8720 C.ar  181  PHE181     -0.0000
     97  N         57.9780   14.2340   53.4340 N.3   214  SER214     -0.1202
     98  CA        58.7300   14.3480   52.1770 C.3   214  SER214      0.2020
     99  C         57.6040   14.8790   51.2950 C.2   214  SER214      0.2619
    100  O         56.7770   15.6170   51.8200 O.2   214  SER214     -0.2717
    101  CB        59.2860   12.9860   51.6990 C.3   214  SER214      0.2103
    102  OG        58.3250   11.9500   51.8110 O.3   214  SER214     -0.2182
    103  N         57.5590   14.5990   49.9970 N.am  215  SER215     -0.1937
    104  CA        56.4180   15.1060   49.2410 C.3   215  SER215      0.2055
    105  C         55.1290   14.3060   49.5780 C.2   215  SER215      0.2643
    106  O         54.0870   14.9030   49.9020 O.2   215  SER215     -0.2714
    107  CB        56.6860   15.1150   47.7300 C.3   215  SER215      0.2130
    108  OG        55.7030   15.8940   47.0510 O.3   215  SER215     -0.2179
    109  N         55.2280   12.9730   49.6060 N.am  216  ALA216     -0.1963
    110  CA        54.0760   12.1290   49.8930 C.3   216  ALA216      0.1728
    111  C         54.1410   11.5780   51.2810 C.2   216  ALA216      0.2617
    112  O         53.1500   11.0540   51.7810 O.2   216  ALA216     -0.2715
    113  CB        53.9800   10.9920   48.9000 C.3   216  ALA216      0.0334
    114  N         55.2890   11.7000   51.9320 N.am  217  GLY217     -0.1940
    115  CA        55.3750   11.1430   53.2650 C.3   217  GLY217      0.2014
    116  C         55.5420    9.6140   53.3040 C.2   217  GLY217      0.2639
    117  O         55.1520    8.9980   54.3290 O.2   217  GLY217     -0.2714
    118  N         56.1060    9.0090   52.2290 N.am  218  ILE218     -0.1963
    119  CA        56.3750    7.5510   52.1470 C.3   218  ILE218      0.1727
    120  C         57.7360    7.0460   51.6950 C.2   218  ILE218      0.2617
    121  O         58.1760    6.0210   52.1910 O.2   218  ILE218     -0.2715
    122  CB        55.4030    6.7710   51.2510 C.3   218  ILE218      0.0290
    123  CG1       55.4510    7.2940   49.8230 C.3   218  ILE218      0.0022
    124  CG2       54.0520    6.7580   51.8620 C.3   218  ILE218      0.0023
    125  CD1       54.4480    6.6560   48.9290 C.3   218  ILE218      0.0001
    126  N         58.3620    7.6910   50.7120 N.am  219  GLY219     -0.1940
    127  CA        59.6340    7.2060   50.1870 C.3   219  GLY219      0.2014
    128  C         60.7880    7.5350   51.0830 C.2   219  GLY219      0.2638
    129  O         61.2760    6.6730   51.7920 O.2   219  GLY219     -0.2714
    130  N         61.2360    8.7870   51.0120 N.am  220  ARG220     -0.1977
    131  CA        62.3270    9.2950   51.8320 C.3   220  ARG220      0.1597
    132  C         61.9450    9.1860   53.2940 C.2   220  ARG220      0.2287
    133  O         62.7980    8.9230   54.1320 O.2   220  ARG220     -0.2864
    134  CB        62.6480   10.7420   51.4250 C.3   220  ARG220      0.0334
    135  CG        63.2080   10.8520   49.9940 C.3   220  ARG220      0.0492
    136  CD        63.1780   12.2860   49.5140 C.3   220  ARG220      0.2205
    137  NE        61.9360   12.6080   48.8080 N.pl3 220  ARG220     -0.0865
    138  CZ        61.6720   13.7640   48.1970 C.cat 220  ARG220      0.5346
    139  NH1       62.5590   14.7310   48.2010 N.pl3 220  ARG220      0.1354
    140  NH2       60.5150   13.9490   47.5810 N.pl3 220  ARG220      0.1354
    141  N         51.1110    3.3020   54.1270 N.3   257  MET257     -0.1230
    142  CA        51.4950    2.6290   52.9190 C.3   257  MET257      0.1702
    143  C         52.7110    3.0680   52.1090 C.2   257  MET257      0.2592
    144  O         53.1060    4.2000   52.1350 O.2   257  MET257     -0.2718
    145  CB        50.2630    2.5010   52.0310 C.3   257  MET257      0.0401
    146  CG        49.5130    3.7360   51.8020 C.3   257  MET257      0.0596
    147  SD        49.6500    4.2980   50.0630 S.3   257  MET257     -0.1393
    148  CE        47.9130    4.4760   49.7540 C.3   257  MET257      0.0692
    149  N         53.3790    2.1190   51.4830 N.am  258  GLY258     -0.1957
    150  CA        54.4810    2.4500   50.6050 C.3   258  GLY258      0.1869
    151  C         55.7450    2.9370   51.2340 C.2   258  GLY258      0.2309
    152  O         56.6120    3.4970   50.5320 O.2   258  GLY258     -0.2863
    153  N         59.8610    3.4460   48.6490 N.3   261  GLN261     -0.1245
    154  CA        59.3920    3.5200   47.2730 C.3   261  GLN261      0.1566
    155  C         60.2180    2.9400   46.1850 C.2   261  GLN261      0.2260
    156  O         59.7580    2.8380   45.0450 O.2   261  GLN261     -0.2867
    157  CB        59.1890    4.9900   46.9160 C.3   261  GLN261      0.0367
    158  CG        57.9770    5.6230   47.5370 C.3   261  GLN261      0.0905
    159  CD        56.7340    4.9070   47.0900 C.2   261  GLN261      0.2608
    160  OE1       56.2830    5.0760   45.9350 O.2   261  GLN261     -0.2717
    161  NE2       56.2090    4.0300   47.9610 N.am  261  GLN261     -0.0878
    162  N         66.3280    2.5760   47.4380 N.3   265  GLN265     -0.1245
    163  CA        66.0600    3.1620   48.7700 C.3   265  GLN265      0.1566
    164  C         66.0890    1.9910   49.7850 C.2   265  GLN265      0.2260
    165  O         66.5330    2.1530   50.9210 O.2   265  GLN265     -0.2867
    166  CB        64.7090    3.9120   48.8270 C.3   265  GLN265      0.0367
    167  CG        64.6800    5.2180   48.0130 C.3   265  GLN265      0.0905
    168  CD        63.3250    5.9810   48.0490 C.2   265  GLN265      0.2608
    169  OE1       62.3070    5.4990   48.5720 O.2   265  GLN265     -0.2717
    170  NE2       63.3180    7.1650   47.4650 N.am  265  GLN265     -0.0878
@<TRIPOS>BOND
     1    62    60    1
     2    61    60    1
     3    60    59    2
     4    59    58    1
     5    58    57    1
     6    20    19    1
     7    93    95   ar
     8    93    91   ar
     9    95    96   ar
    10    57    56    1
    11    70    68   ar
    12    90    91    1
    13    90    87    1
    14    91    92   ar
    15    96    94   ar
    16    56    53    1
    17    10     9    1
    18    19    18    1
    19    81    80    2
    20    89    88    2
    21    68    67    1
    22    68    69   ar
    23    92    94   ar
    24    85    83   ar
    25    48    46   ar
    26    48    50   ar
    27    67    64    1
    28    88    87    1
    29    82    83    1
    30    82    79    1
    31    46    45   ar
    32    80    86   am
    33    80    79    1
    34    87    86    1
    35     9    11    1
    36     9     8    2
    37    18    17    1
    38    83    84   ar
    39    53    52    1
    40    53    54    1
    41    52    42   am
    42    63    54   am
    43    63    64    1
    44    51    50    1
    45    79    78    1
    46    54    55    2
    47    50    49   ar
    48   156   155    2
    49     7     8    1
    50     7     6    1
    51    64    65    1
    52    32    31    2
    53    45    44    1
    54    45    47   ar
    55    17    16    1
    56    41    44    1
    57    41    42    1
    58    41    40    1
    59    42    43    2
    60   160   159    2
    61   155   154    1
    62    49    47   ar
    63    31    40   am
    64    31    30    1
    65    38    37    1
    66    65    66    2
    67    65    71   am
    68     6     5    2
    69     5     2    1
    70    16    13    1
    71   157   154    1
    72   157   158    1
    73    34    35    1
    74    34    33    1
    75   108   107    1
    76   159   158    1
    77   159   161   am
    78   154   153    1
    79    71    72    1
    80    24    23    2
    81   162   163    1
    82    35    36    1
    83   170   168   am
    84    30    33    1
    85    30    29    1
    86    77    75    1
    87   140   138    1
    88    15    14    2
    89   107   104    1
    90    37    36    2
    91    37    39    1
    92    14    13    1
    93     3     2    1
    94     3     4    2
    95   167   168    1
    96   167   166    1
    97    13    12    1
    98     2     1    1
    99   168   169    2
   100   138   139    1
   101   138   137    2
   102    23    29   am
   103    23    22    1
   104    72    75    1
   105    72    73    1
   106    75    76    1
   107   163   166    1
   108   163   164    1
   109   137   136    1
   110   113   110    1
   111   125   123    1
   112   104   105    1
   113   104   103    1
   114    25    22    1
   115    25    26    1
   116   136   135    1
   117    22    21    1
   118   105   109   am
   119   105   106    2
   120   109   110    1
   121    73    74    2
   122   148   147    1
   123   164   165    2
   124   123   122    1
   125   110   111    1
   126   135   134    1
   127   103    99   am
   128   147   146    1
   129   127   126    1
   130   127   128    1
   131    28    26   am
   132    26    27    2
   133   152   151    2
   134   150   151    1
   135   150   149    1
   136   126   120   am
   137   130   128   am
   138   130   131    1
   139   128   129    2
   140   122   124    1
   141   122   119    1
   142   111   112    2
   143   111   114   am
   144    99   100    2
   145    99    98    1
   146   134   131    1
   147   149   143   am
   148   120   119    1
   149   120   121    2
   150   101   102    1
   151   101    98    1
   152   146   145    1
   153   131   132    1
   154   114   115    1
   155   145   142    1
   156   143   144    2
   157   143   142    1
   158   119   118    1
   159    98    97    1
   160   118   116   am
   161   142   141    1
   162   115   116    1
   163   132   133    2
   164   116   117    2
