@<TRIPOS>MOLECULE
tmp/1ptyA01.pdb
 94 87 0 0 0
SMALL
GASTEIGER

@<TRIPOS>ATOM
      1  N         58.4100    5.9870    6.7420 N.3    23  ARG23      -0.1245
      2  CA        57.3270    5.3260    6.0160 C.3    23  ARG23       0.1563
      3  C         57.5920    3.8300    5.9170 C.2    23  ARG23       0.2260
      4  O         56.6830    3.0190    6.0730 O.2    23  ARG23      -0.2867
      5  CB        57.1630    5.9120    4.6150 C.3    23  ARG23       0.0307
      6  CG        56.8400    7.3830    4.5980 C.3    23  ARG23       0.0489
      7  CD        56.4560    7.8540    3.2110 C.3    23  ARG23       0.2205
      8  NE        55.1930    7.2690    2.7830 N.pl3  23  ARG23      -0.0865
      9  CZ        55.0630    6.4260    1.7630 C.cat  23  ARG23       0.5346
     10  NH1       56.1260    6.0650    1.0520 N.pl3  23  ARG23       0.1354
     11  NH2       53.8670    5.9270    1.4650 N.pl3  23  ARG23       0.1354
     12  N         57.1050    2.1460    9.4120 N.3    26  ALA26      -0.1245
     13  CA        55.7570    2.2750    9.9670 C.3    26  ALA26       0.1562
     14  C         54.9770    0.9640   10.0480 C.2    26  ALA26       0.2260
     15  O         55.0930    0.1110    9.1630 O.2    26  ALA26      -0.2867
     16  CB        54.9630    3.3190    9.1740 C.3    26  ALA26       0.0290
     17  N         38.5070    8.8950    1.7130 N.3    45  TYR45      -0.1241
     18  CA        39.5910    8.4540    0.8390 C.3    45  TYR45       0.1605
     19  C         39.7880    6.9350    0.8810 C.2    45  TYR45       0.2264
     20  O         39.8790    6.3270    1.9440 O.2    45  TYR45      -0.2867
     21  CB        40.9030    9.1460    1.2190 C.3    45  TYR45       0.0534
     22  CG        40.8340   10.6460    1.1370 C.ar   45  TYR45      -0.0201
     23  CD1       40.7400   11.2850   -0.0910 C.ar   45  TYR45      -0.0009
     24  CD2       40.8630   11.4280    2.2890 C.ar   45  TYR45      -0.0009
     25  CE1       40.6820   12.6710   -0.1790 C.ar   45  TYR45       0.0417
     26  CE2       40.8020   12.8160    2.2160 C.ar   45  TYR45       0.0417
     27  CZ        40.7160   13.4330    0.9770 C.ar   45  TYR45       0.1957
     28  OH        40.7090   14.8100    0.8810 O.3    45  TYR45      -0.2866
     29  N         42.3690    5.2560    0.2160 N.3    47  ASP47      -0.1225
     30  CA        43.6660    4.9200    0.7900 C.3    47  ASP47       0.1805
     31  C         43.9650    5.3920    2.2260 C.2    47  ASP47       0.2597
     32  O         45.1160    5.3570    2.6640 O.2    47  ASP47      -0.2718
     33  CB        44.7470    5.4300   -0.1610 C.3    47  ASP47       0.1424
     34  CG        44.7130    4.7160   -1.5270 C.2    47  ASP47       0.3668
     35  OD1       44.0590    3.6510   -1.6590 O.co2  47  ASP47      -0.2456
     36  OD2       45.3540    5.2280   -2.4730 O.co2  47  ASP47      -0.2456
     37  N         42.9520    5.8620    2.9470 N.am   48  VAL48      -0.1980
     38  CA        43.1630    6.3030    4.3190 C.3    48  VAL48       0.1595
     39  C         42.0760    5.6560    5.1540 C.2    48  VAL48       0.2287
     40  O         40.9000    6.0470    5.0910 O.2    48  VAL48      -0.2864
     41  CB        43.0910    7.8460    4.4660 C.3    48  VAL48       0.0276
     42  CG1       43.2980    8.2350    5.9360 C.3    48  VAL48       0.0022
     43  CG2       44.1250    8.5310    3.5700 C.3    48  VAL48       0.0022
     44  N         49.2110   19.0250    2.6290 N.3   181  PHE181     -0.1241
     45  CA        50.5340   18.6590    2.1400 C.3   181  PHE181      0.1605
     46  C         51.4730   19.8620    2.2780 C.2   181  PHE181      0.2264
     47  O         52.5200   19.9240    1.6310 O.2   181  PHE181     -0.2867
     48  CB        50.4650   18.1220    0.7020 C.3   181  PHE181      0.0534
     49  CG        49.7080   16.8210    0.5920 C.ar  181  PHE181     -0.0203
     50  CD1       50.3400   15.6060    0.8600 C.ar  181  PHE181     -0.0042
     51  CD2       48.3420   16.8150    0.3070 C.ar  181  PHE181     -0.0042
     52  CE1       49.6170   14.4050    0.8500 C.ar  181  PHE181     -0.0003
     53  CE2       47.6190   15.6280    0.2960 C.ar  181  PHE181     -0.0003
     54  CZ        48.2590   14.4200    0.5720 C.ar  181  PHE181     -0.0000
     55  N         45.2910   12.7090    8.8210 N.3   218  ILE218     -0.1245
     56  CA        46.6170   12.1150    8.9980 C.3   218  ILE218      0.1561
     57  C         47.8170   13.0580    8.8220 C.2   218  ILE218      0.2260
     58  O         48.8010   12.9460    9.5540 O.2   218  ILE218     -0.2867
     59  CB        46.8250   10.8610    8.0790 C.3   218  ILE218      0.0252
     60  CG1       46.7400   11.2500    6.5990 C.3   218  ILE218      0.0019
     61  CG2       45.7930    9.7830    8.4000 C.3   218  ILE218      0.0019
     62  CD1       47.0030   10.0820    5.6500 C.3   218  ILE218      0.0001
     63  N         52.1310    6.0850   14.7360 N.3   253  ARG253     -0.1245
     64  CA        51.7340    5.3520   13.5370 C.3   253  ARG253      0.1563
     65  C         51.2570    3.9170   13.8040 C.2   253  ARG253      0.2260
     66  O         50.7480    3.2460   12.9120 O.2   253  ARG253     -0.2867
     67  CB        52.8250    5.4100   12.4710 C.3   253  ARG253      0.0307
     68  CG        52.8640    6.7380   11.7130 C.3   253  ARG253      0.0489
     69  CD        53.8480    6.6900   10.5570 C.3   253  ARG253      0.2205
     70  NE        53.7540    7.8450    9.6590 N.pl3 253  ARG253     -0.0865
     71  CZ        53.7610    7.7760    8.3240 C.cat 253  ARG253      0.5346
     72  NH1       53.8370    6.6050    7.7020 N.pl3 253  ARG253      0.1354
     73  NH2       53.7810    8.8920    7.5990 N.pl3 253  ARG253      0.1354
     74  N         47.4980    5.0520   10.2750 N.3   257  MET257     -0.1230
     75  CA        48.4280    5.1130    9.1490 C.3   257  MET257      0.1702
     76  C         48.7170    6.5280    8.6160 C.2   257  MET257      0.2592
     77  O         47.9160    7.4490    8.7780 O.2   257  MET257     -0.2718
     78  CB        47.8730    4.2830    7.9800 C.3   257  MET257      0.0401
     79  CG        46.5380    4.8160    7.4180 C.3   257  MET257      0.0596
     80  SD        45.9730    4.0200    5.8900 S.3   257  MET257     -0.1393
     81  CE        45.6920    2.3080    6.4890 C.3   257  MET257      0.0692
     82  N         49.8850    6.6760    7.9980 N.am  258  GLY258     -0.1957
     83  CA        50.2720    7.9170    7.3450 C.3   258  GLY258      0.1869
     84  C         50.3640    9.2280    8.0870 C.2   258  GLY258      0.2309
     85  O         50.3260   10.2770    7.4420 O.2   258  GLY258     -0.2863
     86  N         52.3900   13.6630    6.3860 N.3   261  GLN261     -0.1245
     87  CA        52.3720   13.2780    4.9810 C.3   261  GLN261      0.1566
     88  C         53.5340   13.6670    4.0840 C.2   261  GLN261      0.2260
     89  O         53.6500   13.1470    2.9830 O.2   261  GLN261     -0.2867
     90  CB        51.0610   13.7470    4.3650 C.3   261  GLN261      0.0367
     91  CG        49.8900   12.8780    4.7530 C.3   261  GLN261      0.0905
     92  CD        49.9690   11.5350    4.0590 C.2   261  GLN261      0.2608
     93  OE1       49.5730   11.4170    2.8870 O.2   261  GLN261     -0.2717
     94  NE2       50.5170   10.5190    4.7430 N.am  261  GLN261     -0.0878
@<TRIPOS>BOND
     1    36    34   ar
     2    35    34   ar
     3    34    33    1
     4    25    23   ar
     5    25    27   ar
     6    33    30    1
     7    23    22   ar
     8    29    30    1
     9    53    51   ar
    10    53    54   ar
    11    51    49   ar
    12    54    52   ar
    13    49    48    1
    14    49    50   ar
    15    48    45    1
    16    30    31    1
    17    18    19    1
    18    18    21    1
    19    18    17    1
    20    52    50   ar
    21    28    27    1
    22    19    20    2
    23    27    26   ar
    24    10     9    1
    25    22    21    1
    26    22    24   ar
    27    11     9    1
    28    47    46    2
    29     9     8    2
    30    45    46    1
    31    45    44    1
    32    26    24   ar
    33    31    32    2
    34    31    37   am
    35     8     7    1
    36    93    92    2
    37    37    38    1
    38    89    88    2
    39     7     6    1
    40    43    41    1
    41    92    94   am
    42    92    91    1
    43    88    87    1
    44    38    41    1
    45    38    39    1
    46    90    91    1
    47    90    87    1
    48    41    42    1
    49     6     5    1
    50     5     2    1
    51    87    86    1
    52    40    39    2
    53    62    60    1
    54    80    81    1
    55    80    79    1
    56     3     2    1
    57     3     4    2
    58     2     1    1
    59    60    59    1
    60    83    82    1
    61    83    84    1
    62    79    78    1
    63    85    84    2
    64    73    71    1
    65    72    71    1
    66    78    75    1
    67    82    76   am
    68    59    61    1
    69    59    56    1
    70    71    70    2
    71    76    77    2
    72    76    75    1
    73    55    56    1
    74    57    56    1
    75    57    58    2
    76    75    74    1
    77    15    14    2
    78    16    13    1
    79    12    13    1
    80    70    69    1
    81    13    14    1
    82    69    68    1
    83    68    67    1
    84    67    64    1
    85    66    65    2
    86    64    65    1
    87    64    63    1
