@<TRIPOS>MOLECULE
tmp/1ptyA00.pdb
 117 112 0 0 0
SMALL
GASTEIGER

@<TRIPOS>ATOM
      1  N         38.5070    8.8950    1.7130 N.3    45  TYR45      -0.1241
      2  CA        39.5910    8.4540    0.8390 C.3    45  TYR45       0.1605
      3  C         39.7880    6.9350    0.8810 C.2    45  TYR45       0.2264
      4  O         39.8790    6.3270    1.9440 O.2    45  TYR45      -0.2867
      5  CB        40.9030    9.1460    1.2190 C.3    45  TYR45       0.0534
      6  CG        40.8340   10.6460    1.1370 C.ar   45  TYR45      -0.0201
      7  CD1       40.7400   11.2850   -0.0910 C.ar   45  TYR45      -0.0009
      8  CD2       40.8630   11.4280    2.2890 C.ar   45  TYR45      -0.0009
      9  CE1       40.6820   12.6710   -0.1790 C.ar   45  TYR45       0.0417
     10  CE2       40.8020   12.8160    2.2160 C.ar   45  TYR45       0.0417
     11  CZ        40.7160   13.4330    0.9770 C.ar   45  TYR45       0.1957
     12  OH        40.7090   14.8100    0.8810 O.3    45  TYR45      -0.2866
     13  N         42.3690    5.2560    0.2160 N.3    47  ASP47      -0.1225
     14  CA        43.6660    4.9200    0.7900 C.3    47  ASP47       0.1805
     15  C         43.9650    5.3920    2.2260 C.2    47  ASP47       0.2597
     16  O         45.1160    5.3570    2.6640 O.2    47  ASP47      -0.2718
     17  CB        44.7470    5.4300   -0.1610 C.3    47  ASP47       0.1424
     18  CG        44.7130    4.7160   -1.5270 C.2    47  ASP47       0.3668
     19  OD1       44.0590    3.6510   -1.6590 O.co2  47  ASP47      -0.2456
     20  OD2       45.3540    5.2280   -2.4730 O.co2  47  ASP47      -0.2456
     21  N         42.9520    5.8620    2.9470 N.am   48  VAL48      -0.1980
     22  CA        43.1630    6.3030    4.3190 C.3    48  VAL48       0.1595
     23  C         42.0760    5.6560    5.1540 C.2    48  VAL48       0.2287
     24  O         40.9000    6.0470    5.0910 O.2    48  VAL48      -0.2864
     25  CB        43.0910    7.8460    4.4660 C.3    48  VAL48       0.0276
     26  CG1       43.2980    8.2350    5.9360 C.3    48  VAL48       0.0022
     27  CG2       44.1250    8.5310    3.5700 C.3    48  VAL48       0.0022
     28  N         36.6830   19.3730    0.8360 N.3   119  LYS119     -0.1245
     29  CA        37.5160   18.4750    1.6230 C.3   119  LYS119      0.1561
     30  C         36.9190   18.0830    2.9750 C.2   119  LYS119      0.2260
     31  O         37.5110   17.2820    3.7050 O.2   119  LYS119     -0.2867
     32  CB        38.8750   19.1390    1.8650 C.3   119  LYS119      0.0271
     33  CG        39.5990   19.5880    0.6010 C.3   119  LYS119      0.0035
     34  CD        39.8130   18.4270   -0.3460 C.3   119  LYS119      0.0206
     35  CE        40.7510   18.8210   -1.4650 C.3   119  LYS119      0.1093
     36  NZ        41.0420   17.6740   -2.3710 N.3   119  LYS119     -0.1314
     37  N         46.8040   21.6840    2.6540 N.3   180  ASP180     -0.1225
     38  CA        47.1280   20.2570    2.7340 C.3   180  ASP180      0.1805
     39  C         48.4680   19.9620    2.0500 C.2   180  ASP180      0.2597
     40  O         48.8530   20.6300    1.0770 O.2   180  ASP180     -0.2718
     41  CB        45.9670   19.3380    2.2640 C.3   180  ASP180      0.1424
     42  CG        45.8070   19.2520    0.7490 C.2   180  ASP180      0.3668
     43  OD1       46.1810   20.1960    0.0200 O.co2 180  ASP180     -0.2456
     44  OD2       45.2590   18.2180    0.2880 O.co2 180  ASP180     -0.2456
     45  N         49.2110   19.0250    2.6290 N.am  181  PHE181     -0.1976
     46  CA        50.5340   18.6590    2.1400 C.3   181  PHE181      0.1639
     47  C         51.4730   19.8620    2.2780 C.2   181  PHE181      0.2290
     48  O         52.5200   19.9240    1.6310 O.2   181  PHE181     -0.2864
     49  CB        50.4650   18.1220    0.7020 C.3   181  PHE181      0.0560
     50  CG        49.7080   16.8210    0.5920 C.ar  181  PHE181     -0.0200
     51  CD1       50.3400   15.6060    0.8600 C.ar  181  PHE181     -0.0042
     52  CD2       48.3420   16.8150    0.3070 C.ar  181  PHE181     -0.0042
     53  CE1       49.6170   14.4050    0.8500 C.ar  181  PHE181     -0.0003
     54  CE2       47.6190   15.6280    0.2960 C.ar  181  PHE181     -0.0003
     55  CZ        48.2590   14.4200    0.5720 C.ar  181  PHE181     -0.0000
     56  N         41.5540   16.7610    9.8690 N.3   214  SER214     -0.1202
     57  CA        41.9550   17.5860    8.7480 C.3   214  SER214      0.2020
     58  C         41.0510   17.0080    7.6820 C.2   214  SER214      0.2619
     59  O         39.9100   16.6770    7.9900 O.2   214  SER214     -0.2717
     60  CB        43.4350   17.4020    8.4300 C.3   214  SER214      0.2103
     61  OG        43.8530   16.0650    8.6510 O.3   214  SER214     -0.2182
     62  N         41.5010   16.9000    6.4430 N.am  215  SER215     -0.1937
     63  CA        40.6340   16.3060    5.4390 C.3   215  SER215      0.2055
     64  C         40.7090   14.7820    5.5700 C.2   215  SER215      0.2643
     65  O         39.6900   14.1020    5.6780 O.2   215  SER215     -0.2714
     66  CB        41.0310   16.7460    4.0380 C.3   215  SER215      0.2130
     67  OG        40.0940   16.2290    3.1180 O.3   215  SER215     -0.2179
     68  N         41.9270   14.2550    5.5760 N.am  216  ALA216     -0.1963
     69  CA        42.1250   12.8200    5.7160 C.3   216  ALA216      0.1728
     70  C         42.3060   12.4240    7.1770 C.2   216  ALA216      0.2617
     71  O         42.0790   11.2710    7.5440 O.2   216  ALA216     -0.2715
     72  CB        43.3430   12.3750    4.9070 C.3   216  ALA216      0.0334
     73  N         42.7300   13.3760    8.0060 N.am  217  GLY217     -0.1940
     74  CA        42.9560   13.0810    9.4110 C.3   217  GLY217      0.2014
     75  C         44.2990   12.4180    9.6590 C.2   217  GLY217      0.2639
     76  O         44.4510   11.6670   10.6170 O.2   217  GLY217     -0.2714
     77  N         45.2910   12.7090    8.8210 N.am  218  ILE218     -0.1963
     78  CA        46.6170   12.1150    8.9980 C.3   218  ILE218      0.1727
     79  C         47.8170   13.0580    8.8220 C.2   218  ILE218      0.2617
     80  O         48.8010   12.9460    9.5540 O.2   218  ILE218     -0.2715
     81  CB        46.8250   10.8610    8.0790 C.3   218  ILE218      0.0290
     82  CG1       46.7400   11.2500    6.5990 C.3   218  ILE218      0.0022
     83  CG2       45.7930    9.7830    8.4000 C.3   218  ILE218      0.0023
     84  CD1       47.0030   10.0820    5.6500 C.3   218  ILE218      0.0001
     85  N         47.7470   13.9790    7.8550 N.am  219  GLY219     -0.1940
     86  CA        48.8620   14.8910    7.5980 C.3   219  GLY219      0.2014
     87  C         49.0080   16.0250    8.5920 C.2   219  GLY219      0.2638
     88  O         49.8750   15.9950    9.4710 O.2   219  GLY219     -0.2714
     89  N         48.1690   17.0450    8.4340 N.am  220  ARG220     -0.1977
     90  CA        48.1590   18.1830    9.3450 C.3   220  ARG220      0.1597
     91  C         47.8080   17.6900   10.7690 C.2   220  ARG220      0.2287
     92  O         48.3740   18.1680   11.7480 O.2   220  ARG220     -0.2864
     93  CB        47.1550   19.2340    8.8510 C.3   220  ARG220      0.0334
     94  CG        47.6300   19.9410    7.5860 C.3   220  ARG220      0.0492
     95  CD        46.5340   20.6990    6.8690 C.3   220  ARG220      0.2205
     96  NE        45.6130   19.8030    6.1700 N.pl3 220  ARG220     -0.0865
     97  CZ        44.6150   20.2180    5.3960 C.cat 220  ARG220      0.5346
     98  NH1       44.4190   21.5180    5.2200 N.pl3 220  ARG220      0.1354
     99  NH2       43.7960   19.3420    4.8210 N.pl3 220  ARG220      0.1354
    100  N         52.3900   13.6630    6.3860 N.3   261  GLN261     -0.1245
    101  CA        52.3720   13.2780    4.9810 C.3   261  GLN261      0.1566
    102  C         53.5340   13.6670    4.0840 C.2   261  GLN261      0.2260
    103  O         53.6500   13.1470    2.9830 O.2   261  GLN261     -0.2867
    104  CB        51.0610   13.7470    4.3650 C.3   261  GLN261      0.0367
    105  CG        49.8900   12.8780    4.7530 C.3   261  GLN261      0.0905
    106  CD        49.9690   11.5350    4.0590 C.2   261  GLN261      0.2608
    107  OE1       49.5730   11.4170    2.8870 O.2   261  GLN261     -0.2717
    108  NE2       50.5170   10.5190    4.7430 N.am  261  GLN261     -0.0878
    109  N         56.6080   18.4780    6.4730 N.3   265  GLN265     -0.1245
    110  CA        55.7610   18.4890    7.6670 C.3   265  GLN265      0.1566
    111  C         56.5550   17.9030    8.8420 C.2   265  GLN265      0.2260
    112  O         56.3900   18.3370    9.9850 O.2   265  GLN265     -0.2867
    113  CB        54.4740   17.6980    7.4450 C.3   265  GLN265      0.0367
    114  CG        53.4750   18.4070    6.5590 C.3   265  GLN265      0.0905
    115  CD        52.2180   17.6030    6.3200 C.2   265  GLN265      0.2608
    116  OE1       52.1680   16.4100    6.5980 O.2   265  GLN265     -0.2717
    117  NE2       51.1840   18.2630    5.8060 N.am  265  GLN265     -0.0878
@<TRIPOS>BOND
     1    20    18   ar
     2    36    35    1
     3    19    18   ar
     4    18    17    1
     5    35    34    1
     6    34    33    1
     7     9     7   ar
     8     9    11   ar
     9    17    14    1
    10     7     6   ar
    11    43    42   ar
    12    13    14    1
    13    44    42   ar
    14    54    52   ar
    15    54    55   ar
    16    52    50   ar
    17    55    53   ar
    18    50    49    1
    19    50    51   ar
    20    33    32    1
    21    49    46    1
    22    42    41    1
    23    14    15    1
    24    28    29    1
    25     2     3    1
    26     2     5    1
    27     2     1    1
    28    53    51   ar
    29     3     4    2
    30    12    11    1
    31    11    10   ar
    32    40    39    2
    33     6     5    1
    34     6     8   ar
    35    29    32    1
    36    29    30    1
    37    48    47    2
    38    39    45   am
    39    39    38    1
    40    46    47    1
    41    46    45    1
    42    10     8   ar
    43    15    16    2
    44    15    21   am
    45    41    38    1
    46    37    38    1
    47   107   106    2
    48    21    22    1
    49    30    31    2
    50   103   102    2
    51    67    66    1
    52    27    25    1
    53    66    63    1
    54   106   108   am
    55   106   105    1
    56   102   101    1
    57    22    25    1
    58    22    23    1
    59   104   105    1
    60   104   101    1
    61    25    26    1
    62    99    97    1
    63    72    69    1
    64   101   100    1
    65    24    23    2
    66    98    97    1
    67    97    96    2
    68    63    64    1
    69    63    62    1
    70    64    68   am
    71    64    65    2
    72    68    69    1
    73    84    82    1
    74    69    70    1
    75   117   115   am
    76    96    95    1
    77   115   114    1
    78   115   116    2
    79    62    58   am
    80   109   110    1
    81   114   113    1
    82    82    81    1
    83    95    94    1
    84    70    71    2
    85    70    73   am
    86   113   110    1
    87    94    93    1
    88    86    85    1
    89    86    87    1
    90   110   111    1
    91    58    59    2
    92    58    57    1
    93    85    79   am
    94    73    74    1
    95    81    83    1
    96    81    78    1
    97    60    61    1
    98    60    57    1
    99    89    87   am
   100    89    90    1
   101    87    88    2
   102    57    56    1
   103    77    78    1
   104    77    75   am
   105    79    78    1
   106    79    80    2
   107   111   112    2
   108    93    90    1
   109    90    91    1
   110    74    75    1
   111    75    76    2
   112    91    92    2
