@<TRIPOS>MOLECULE
tmp/1pu7A00.pdb
 116 116 0 0 0
SMALL
GASTEIGER

@<TRIPOS>ATOM
      1  N        123.7340   16.3100   45.3880 N.3    23  TRP23      -0.1227
      2  CA       123.3450   14.9830   45.9220 C.3    23  TRP23       0.1737
      3  C        122.6040   14.0760   44.9400 C.2    23  TRP23       0.2595
      4  O        123.0790   12.9900   44.6710 O.2    23  TRP23      -0.2718
      5  CB       122.5990   15.0840   47.2340 C.3    23  TRP23       0.0564
      6  CG       122.1420   13.7660   47.8210 C.ar   23  TRP23       0.0003
      7  CD1      122.9290   12.7840   48.3750 C.ar   23  TRP23       0.0946
      8  CD2      120.7920   13.2880   47.9040 C.ar   23  TRP23       0.0152
      9  NE1      122.1440   11.7470   48.8250 N.ar   23  TRP23      -0.2442
     10  CE2      120.8290   12.0210   48.5330 C.ar   23  TRP23       0.0810
     11  CE3      119.5450   13.8190   47.5360 C.ar   23  TRP23       0.0012
     12  CZ2      119.6730   11.2870   48.8160 C.ar   23  TRP23       0.0191
     13  CZ3      118.4010   13.0960   47.8100 C.ar   23  TRP23       0.0001
     14  CH2      118.4750   11.8260   48.4490 C.ar   23  TRP23       0.0015
     15  N        121.4520   14.5150   44.4320 N.am   24  TRP24      -0.1963
     16  CA       120.7060   13.7880   43.4250 C.3    24  TRP24       0.1756
     17  C        121.5550   13.6810   42.1610 C.2    24  TRP24       0.2461
     18  O        121.9890   14.6970   41.6400 O.2    24  TRP24      -0.2730
     19  CB       119.4360   14.5750   43.0860 C.3    24  TRP24       0.0590
     20  CG       118.3010   13.7490   42.5480 C.ar   24  TRP24       0.0006
     21  CD1      118.2350   13.0900   41.3380 C.ar   24  TRP24       0.0946
     22  CD2      117.0370   13.5600   43.1800 C.ar   24  TRP24       0.0152
     23  NE1      117.0090   12.4630   41.2100 N.ar   24  TRP24      -0.2442
     24  CE2      116.2660   12.7020   42.3430 C.ar   24  TRP24       0.0810
     25  CE3      116.4930   13.9720   44.4120 C.ar   24  TRP24       0.0012
     26  CZ2      114.9490   12.3180   42.6580 C.ar   24  TRP24       0.0191
     27  CZ3      115.1820   13.5350   44.7630 C.ar   24  TRP24       0.0001
     28  CH2      114.4240   12.7430   43.8680 C.ar   24  TRP24       0.0015
     29  N        121.8100   12.4630   41.6750 N.am   25  PRO25      -0.2727
     30  CA       122.5830   12.2820   40.4190 C.3    25  PRO25       0.1402
     31  C        121.9020   12.9470   39.2270 C.2    25  PRO25       0.2269
     32  O        120.6930   12.8000   39.0620 O.2    25  PRO25      -0.2865
     33  CB       122.6070   10.7590   40.2000 C.3    25  PRO25       0.0296
     34  CG       122.2070   10.1300   41.5240 C.3    25  PRO25       0.0237
     35  CD       121.3890   11.1820   42.2960 C.3    25  PRO25       0.0939
     36  N        110.6240    7.7700   42.0740 N.3    39  THR39      -0.1218
     37  CA       111.1000    7.3620   43.3980 C.3    39  THR39       0.1862
     38  C        109.9470    7.2300   44.4330 C.2    39  THR39       0.2287
     39  O        110.1450    6.6450   45.5110 O.2    39  THR39      -0.2866
     40  CB       112.2550    8.3120   43.8950 C.3    39  THR39       0.1770
     41  OG1      112.9830    7.6790   44.9660 O.3    39  THR39      -0.2211
     42  CG2      111.6760    9.5130   44.5460 C.3    39  THR39       0.0375
     43  N        109.0410    3.8890   46.4640 N.3    42  THR42      -0.1218
     44  CA       110.0380    2.8780   46.1250 C.3    42  THR42       0.1862
     45  C        111.4330    3.3320   46.5580 C.2    42  THR42       0.2287
     46  O        111.5880    4.4030   47.1300 O.2    42  THR42      -0.2866
     47  CB       109.9580    2.5090   44.6080 C.3    42  THR42       0.1770
     48  OG1      110.7430    1.3360   44.3680 O.3    42  THR42      -0.2211
     49  CG2      110.6160    3.5720   43.7240 C.3    42  THR42       0.0375
     50  N        115.4380    4.2740   45.6930 N.3    44  PHE44      -0.1227
     51  CA       116.0930    4.9660   44.6100 C.3    44  PHE44       0.1736
     52  C        116.9380    4.0640   43.7380 C.2    44  PHE44       0.2595
     53  O        117.1520    4.3740   42.5740 O.2    44  PHE44      -0.2718
     54  CB       116.9490    6.1180   45.1450 C.3    44  PHE44       0.0547
     55  CG       117.3260    7.1090   44.0810 C.ar   44  PHE44      -0.0202
     56  CD1      118.6550    7.2690   43.7080 C.ar   44  PHE44      -0.0042
     57  CD2      116.3330    7.8390   43.4180 C.ar   44  PHE44      -0.0042
     58  CE1      119.0090    8.1850   42.6870 C.ar   44  PHE44      -0.0003
     59  CE2      116.6610    8.7710   42.4140 C.ar   44  PHE44      -0.0003
     60  CZ       118.0000    8.9290   42.0390 C.ar   44  PHE44      -0.0000
     61  N        117.4350    2.9650   44.3030 N.am   45  GLU45      -0.1979
     62  CA       118.2330    1.9880   43.5540 C.3    45  GLU45       0.1602
     63  C        117.4030    1.4550   42.3710 C.2    45  GLU45       0.2287
     64  O        117.9170    1.3130   41.2520 O.2    45  GLU45      -0.2864
     65  CB       118.6360    0.8180   44.4750 C.3    45  GLU45       0.0415
     66  CG       119.6020    1.1630   45.6190 C.3    45  GLU45       0.1163
     67  CD       119.1420    2.3100   46.5220 C.2    45  GLU45       0.3649
     68  OE1      119.9700    3.2090   46.7730 O.co2  45  GLU45      -0.2457
     69  OE2      117.9710    2.3390   46.9830 O.co2  45  GLU45      -0.2457
     70  N        111.4510    9.6600   55.8910 N.3   151  TYR151     -0.1241
     71  CA       112.7720    9.7340   56.5470 C.3   151  TYR151      0.1605
     72  C        112.8910   10.9350   57.5190 C.2   151  TYR151      0.2264
     73  O        113.2810   10.7820   58.6870 O.2   151  TYR151     -0.2867
     74  CB       113.8950    9.8450   55.5110 C.3   151  TYR151      0.0534
     75  CG       114.2230    8.5750   54.7610 C.ar  151  TYR151     -0.0201
     76  CD1      114.3460    8.5880   53.3680 C.ar  151  TYR151     -0.0009
     77  CD2      114.4210    7.3640   55.4340 C.ar  151  TYR151     -0.0009
     78  CE1      114.6660    7.4160   52.6470 C.ar  151  TYR151      0.0417
     79  CE2      114.7370    6.1950   54.7300 C.ar  151  TYR151      0.0417
     80  CZ       114.8640    6.2340   53.3410 C.ar  151  TYR151      0.1957
     81  OH       115.1700    5.0760   52.6500 O.3   151  TYR151     -0.2866
     82  N        118.6520   17.8200   52.5240 N.3   202  HIS202     -0.1241
     83  CA       117.7090   16.7040   52.4310 C.3   202  HIS202      0.1621
     84  C        118.5070   15.4130   52.1460 C.2   202  HIS202      0.2264
     85  O        118.2570   14.3770   52.7450 O.2   202  HIS202     -0.2867
     86  CB       116.6450   16.9410   51.3410 C.3   202  HIS202      0.0745
     87  CG       115.9220   15.6970   50.9580 C.ar  202  HIS202      0.0817
     88  ND1      115.1330   14.9970   51.8490 N.ar  202  HIS202     -0.2268
     89  CD2      115.8870   14.9950   49.7980 C.ar  202  HIS202      0.1154
     90  CE1      114.6330   13.9290   51.2520 C.ar  202  HIS202      0.1986
     91  NE2      115.0600   13.9130   50.0010 N.ar  202  HIS202     -0.2212
     92  N        118.5300   11.8370   54.2660 N.3   205  VAL205     -0.1231
     93  CA       118.3310   10.5600   53.5880 C.3   205  VAL205      0.1692
     94  C        119.5250    9.5940   53.8470 C.2   205  VAL205      0.2591
     95  O        119.3100    8.4640   54.3000 O.2   205  VAL205     -0.2718
     96  CB       118.0240   10.7260   52.0750 C.3   205  VAL205      0.0266
     97  CG1      118.0160    9.3760   51.3720 C.3   205  VAL205      0.0020
     98  CG2      116.6660   11.4030   51.8410 C.3   205  VAL205      0.0020
     99  N        120.7600   10.0490   53.6040 N.am  206  GLU206     -0.1979
    100  CA       121.9480    9.2100   53.8050 C.3   206  GLU206      0.1602
    101  C        122.1000    8.7970   55.2610 C.2   206  GLU206      0.2287
    102  O        122.4240    7.6540   55.5550 O.2   206  GLU206     -0.2864
    103  CB       123.2260    9.9240   53.3650 C.3   206  GLU206      0.0415
    104  CG       123.2190   10.3320   51.8940 C.3   206  GLU206      0.1163
    105  CD       123.1940    9.1360   50.9590 C.2   206  GLU206      0.3649
    106  OE1      122.8830    9.3200   49.7730 O.co2 206  GLU206     -0.2457
    107  OE2      123.5090    8.0210   51.4110 O.co2 206  GLU206     -0.2457
    108  N        119.3290    6.1650   55.7730 N.3   209  LYS209     -0.1245
    109  CA       119.7250    4.9230   55.1100 C.3   209  LYS209      0.1561
    110  C        120.8420    4.2030   55.8600 C.2   209  LYS209      0.2260
    111  O        120.8330    2.9760   55.9590 O.2   209  LYS209     -0.2867
    112  CB       120.1570    5.1990   53.6590 C.3   209  LYS209      0.0271
    113  CG       119.0320    4.9870   52.6270 C.3   209  LYS209      0.0035
    114  CD       119.2020    5.8630   51.3730 C.3   209  LYS209      0.0206
    115  CE       119.6850    5.0640   50.1660 C.3   209  LYS209      0.1093
    116  NZ       120.9580    5.6250   49.5850 N.3   209  LYS209     -0.1314
@<TRIPOS>BOND
     1    32    31    2
     2    31    30    1
     3    33    30    1
     4    33    34    1
     5    30    29    1
     6    23    21   ar
     7    23    24   ar
     8    64    63    2
     9    21    20   ar
    10    34    35    1
    11    18    17    2
    12    29    17   am
    13    29    35    1
    14    60    59   ar
    15    60    58   ar
    16    36    37    1
    17    17    16    1
    18    24    26   ar
    19    24    22   ar
    20    63    62    1
    21    59    57   ar
    22    20    19    1
    23    20    22   ar
    24    53    52    2
    25    26    28   ar
    26    58    56   ar
    27    19    16    1
    28    22    25   ar
    29    37    40    1
    30    37    38    1
    31    57    55   ar
    32    16    15    1
    33    62    61    1
    34    62    65    1
    35    56    55   ar
    36    49    47    1
    37    52    61   am
    38    52    51    1
    39    28    27   ar
    40    40    42    1
    41    40    41    1
    42    55    54    1
    43    48    47    1
    44    25    27   ar
    45    15     3   am
    46    38    39    2
    47    65    66    1
    48    47    44    1
    49    51    54    1
    50    51    50    1
    51     4     3    2
    52     3     2    1
    53     1     2    1
    54    66    67    1
    55     2     5    1
    56    44    43    1
    57    44    45    1
    58    67    68   ar
    59    67    69   ar
    60    45    46    2
    61     5     6    1
    62    11    13   ar
    63    11     8   ar
    64    13    14   ar
    65     6     8   ar
    66     6     7   ar
    67     8    10   ar
    68     7     9   ar
    69    14    12   ar
    70    10    12   ar
    71    10     9   ar
    72   116   115    1
    73   106   105   ar
    74    89    91   ar
    75    89    87   ar
    76    91    90   ar
    77   115   114    1
    78    87    86    1
    79    87    88   ar
    80   105   107   ar
    81   105   104    1
    82    90    88   ar
    83    86    83    1
    84    97    96    1
    85   114   113    1
    86    98    96    1
    87   104   103    1
    88    96    93    1
    89    84    83    1
    90    84    85    2
    91    83    82    1
    92   113   112    1
    93    78    80   ar
    94    78    76   ar
    95    81    80    1
    96    80    79   ar
    97   103   100    1
    98    76    75   ar
    99    93    94    1
   100    93    92    1
   101    99   100    1
   102    99    94   am
   103   112   109    1
   104   100   101    1
   105    94    95    2
   106    79    77   ar
   107    75    77   ar
   108    75    74    1
   109   109   108    1
   110   109   110    1
   111   101   102    2
   112    74    71    1
   113   110   111    2
   114    70    71    1
   115    71    72    1
   116    72    73    2
