@<TRIPOS>MOLECULE
tmp/1pu8A00.pdb
 109 109 0 0 0
SMALL
GASTEIGER

@<TRIPOS>ATOM
      1  N        123.6540   16.2330   45.4440 N.3    24  TRP24      -0.1227
      2  CA       123.2750   14.9460   46.0430 C.3    24  TRP24       0.1737
      3  C        122.5400   14.0160   45.1190 C.2    24  TRP24       0.2595
      4  O        123.0090   12.9100   44.8780 O.2    24  TRP24      -0.2718
      5  CB       122.4920   15.0860   47.3460 C.3    24  TRP24       0.0564
      6  CG       122.0850   13.7450   47.9070 C.ar   24  TRP24       0.0003
      7  CD1      122.9140   12.7550   48.3880 C.ar   24  TRP24       0.0946
      8  CD2      120.7550   13.2330   48.0170 C.ar   24  TRP24       0.0152
      9  NE1      122.1680   11.6810   48.8080 N.ar   24  TRP24      -0.2442
     10  CE2      120.8400   11.9520   48.5900 C.ar   24  TRP24       0.0810
     11  CE3      119.4900   13.7410   47.7060 C.ar   24  TRP24       0.0012
     12  CZ2      119.7100   11.1790   48.8670 C.ar   24  TRP24       0.0191
     13  CZ3      118.3680   12.9710   47.9850 C.ar   24  TRP24       0.0001
     14  CH2      118.4860   11.7130   48.5650 C.ar   24  TRP24       0.0015
     15  N        121.3830   14.4590   44.6340 N.am   25  TRP25      -0.1963
     16  CA       120.6450   13.7620   43.6050 C.3    25  TRP25       0.1756
     17  C        121.4810   13.6920   42.3120 C.2    25  TRP25       0.2461
     18  O        121.8570   14.7180   41.7560 O.2    25  TRP25      -0.2730
     19  CB       119.3480   14.5260   43.3140 C.3    25  TRP25       0.0590
     20  CG       118.2310   13.6810   42.7680 C.ar   25  TRP25       0.0006
     21  CD1      118.2070   13.0170   41.5680 C.ar   25  TRP25       0.0946
     22  CD2      116.9700   13.4240   43.3910 C.ar   25  TRP25       0.0152
     23  NE1      117.0100   12.3600   41.4120 N.ar   25  TRP25      -0.2442
     24  CE2      116.2280   12.5900   42.5170 C.ar   25  TRP25       0.0810
     25  CE3      116.3800   13.8180   44.6080 C.ar   25  TRP25       0.0012
     26  CZ2      114.9280   12.1320   42.8240 C.ar   25  TRP25       0.0191
     27  CZ3      115.0830   13.3630   44.9170 C.ar   25  TRP25       0.0001
     28  CH2      114.3820   12.5230   44.0250 C.ar   25  TRP25       0.0015
     29  N        121.7560   12.4850   41.8180 N.am   26  PRO26      -0.2727
     30  CA       122.5780   12.3250   40.6000 C.3    26  PRO26       0.1402
     31  C        121.8390   12.8860   39.4120 C.2    26  PRO26       0.2269
     32  O        120.6290   12.7080   39.3180 O.2    26  PRO26      -0.2865
     33  CB       122.7560   10.8060   40.4530 C.3    26  PRO26       0.0296
     34  CG       121.7120   10.1880   41.3070 C.3    26  PRO26       0.0237
     35  CD       121.3050   11.2050   42.3780 C.3    26  PRO26       0.0939
     36  N        110.4710    7.7200   42.0420 N.3    40  THR40      -0.1218
     37  CA       110.8810    7.3480   43.3870 C.3    40  THR40       0.1862
     38  C        109.7190    7.2060   44.3930 C.2    40  THR40       0.2287
     39  O        109.8920    6.6060   45.4640 O.2    40  THR40      -0.2866
     40  CB       111.9930    8.3130   43.9130 C.3    40  THR40       0.1770
     41  OG1      112.6420    7.6990   45.0180 O.3    40  THR40      -0.2211
     42  CG2      111.4110    9.5520   44.5420 C.3    40  THR40       0.0375
     43  N        115.1970    4.1560   45.8130 N.3    45  PHE45      -0.1241
     44  CA       115.8950    4.8860   44.7700 C.3    45  PHE45       0.1605
     45  C        116.7500    4.0030   43.9110 C.2    45  PHE45       0.2264
     46  O        116.9150    4.2610   42.7320 O.2    45  PHE45      -0.2867
     47  CB       116.7570    6.0330   45.3190 C.3    45  PHE45       0.0534
     48  CG       117.1450    7.0260   44.2530 C.ar   45  PHE45      -0.0203
     49  CD1      118.4830    7.1880   43.8790 C.ar   45  PHE45      -0.0042
     50  CD2      116.1610    7.7680   43.5970 C.ar   45  PHE45      -0.0042
     51  CE1      118.8300    8.0940   42.8720 C.ar   45  PHE45      -0.0003
     52  CE2      116.4830    8.6720   42.5860 C.ar   45  PHE45      -0.0003
     53  CZ       117.8220    8.8340   42.2100 C.ar   45  PHE45      -0.0000
     54  N        105.9180   15.4180   48.0360 N.3   132  GLU132     -0.1245
     55  CA       107.3120   15.0450   48.0660 C.3   132  GLU132      0.1567
     56  C        107.9010   15.0600   46.6540 C.2   132  GLU132      0.2260
     57  O        108.9260   15.7050   46.4130 O.2   132  GLU132     -0.2867
     58  CB       107.4710   13.6750   48.6920 C.3   132  GLU132      0.0388
     59  CG       108.9280   13.2840   48.8160 C.3   132  GLU132      0.1160
     60  CD       109.1130   11.9410   49.4750 C.2   132  GLU132      0.3649
     61  OE1      110.1920   11.3440   49.2650 O.co2 132  GLU132     -0.2457
     62  OE2      108.1990   11.4810   50.1960 O.co2 132  GLU132     -0.2457
     63  N        111.4820    9.6690   56.0590 N.3   152  TYR152     -0.1241
     64  CA       112.8040    9.7650   56.6700 C.3   152  TYR152      0.1605
     65  C        112.8960   10.9570   57.6170 C.2   152  TYR152      0.2264
     66  O        113.3100   10.8140   58.7520 O.2   152  TYR152     -0.2867
     67  CB       113.8730    9.9460   55.5960 C.3   152  TYR152      0.0534
     68  CG       114.2290    8.6990   54.8490 C.ar  152  TYR152     -0.0201
     69  CD1      114.3470    8.7190   53.4640 C.ar  152  TYR152     -0.0009
     70  CD2      114.4460    7.5030   55.5170 C.ar  152  TYR152     -0.0009
     71  CE1      114.6730    7.5790   52.7520 C.ar  152  TYR152      0.0417
     72  CE2      114.7660    6.3510   54.8200 C.ar  152  TYR152      0.0417
     73  CZ       114.8870    6.3980   53.4340 C.ar  152  TYR152      0.1957
     74  OH       115.2180    5.2570   52.7330 O.3   152  TYR152     -0.2866
     75  N        118.5390   17.8470   52.6480 N.3   203  HIS203     -0.1241
     76  CA       117.6560   16.6790   52.5310 C.3   203  HIS203      0.1621
     77  C        118.5030   15.4370   52.2620 C.2   203  HIS203      0.2264
     78  O        118.2620   14.3870   52.8590 O.2   203  HIS203     -0.2867
     79  CB       116.5520   16.8580   51.4690 C.3   203  HIS203      0.0745
     80  CG       115.8810   15.5750   51.0780 C.ar  203  HIS203      0.0817
     81  ND1      115.0510   14.8750   51.9290 N.ar  203  HIS203     -0.2268
     82  CD2      115.9180   14.8610   49.9260 C.ar  203  HIS203      0.1154
     83  CE1      114.5800   13.8070   51.3070 C.ar  203  HIS203      0.1986
     84  NE2      115.0930   13.7720   50.0910 N.ar  203  HIS203     -0.2212
     85  N        118.5100   11.8200   54.3740 N.3   206  VAL206     -0.1231
     86  CA       118.3510   10.5300   53.6940 C.3   206  VAL206      0.1692
     87  C        119.5390    9.6150   53.9730 C.2   206  VAL206      0.2591
     88  O        119.3580    8.4870   54.4000 O.2   206  VAL206     -0.2718
     89  CB       118.1490   10.6720   52.1690 C.3   206  VAL206      0.0266
     90  CG1      118.0300    9.2920   51.5220 C.3   206  VAL206      0.0020
     91  CG2      116.8800   11.4910   51.8840 C.3   206  VAL206      0.0020
     92  N        120.7470   10.1150   53.7480 N.am  207  GLU207     -0.1979
     93  CA       121.9510    9.3310   53.9770 C.3   207  GLU207      0.1602
     94  C        122.0690    8.9250   55.4360 C.2   207  GLU207      0.2287
     95  O        122.2810    7.7420   55.7270 O.2   207  GLU207     -0.2864
     96  CB       123.2070   10.0690   53.5010 C.3   207  GLU207      0.0415
     97  CG       123.2160   10.3560   51.9900 C.3   207  GLU207      0.1163
     98  CD       123.3720    9.1180   51.1010 C.2   207  GLU207      0.3649
     99  OE1      123.6800    8.0060   51.5840 O.co2 207  GLU207     -0.2457
    100  OE2      123.2130    9.2720   49.8780 O.co2 207  GLU207     -0.2457
    101  N        119.6680    5.9810   56.0040 N.3   210  LYS210     -0.1245
    102  CA       120.1130    4.7140   55.4270 C.3   210  LYS210      0.1561
    103  C        121.2790    4.0910   56.2090 C.2   210  LYS210      0.2260
    104  O        121.3140    2.8700   56.4030 O.2   210  LYS210     -0.2867
    105  CB       120.4820    4.8910   53.9430 C.3   210  LYS210      0.0271
    106  CG       119.3880    5.5770   53.0890 C.3   210  LYS210      0.0035
    107  CD       119.2640    5.0200   51.6550 C.3   210  LYS210      0.0206
    108  CE       120.0720    5.8360   50.6310 C.3   210  LYS210      0.1093
    109  NZ       119.4770    5.7730   49.2610 N.3   210  LYS210     -0.1314
@<TRIPOS>BOND
     1    32    31    2
     2    31    30    1
     3    33    30    1
     4    33    34    1
     5    30    29    1
     6    34    35    1
     7    23    21   ar
     8    23    24   ar
     9    21    20   ar
    10    18    17    2
    11    29    17   am
    12    29    35    1
    13    36    37    1
    14    53    52   ar
    15    53    51   ar
    16    17    16    1
    17    24    26   ar
    18    24    22   ar
    19    52    50   ar
    20    46    45    2
    21    20    19    1
    22    20    22   ar
    23    26    28   ar
    24    51    49   ar
    25    19    16    1
    26    37    40    1
    27    37    38    1
    28    22    25   ar
    29    50    48   ar
    30    16    15    1
    31    49    48   ar
    32    45    44    1
    33    40    42    1
    34    40    41    1
    35    28    27   ar
    36    48    47    1
    37    38    39    2
    38    25    27   ar
    39    15     3   am
    40    44    47    1
    41    44    43    1
    42     4     3    2
    43     3     2    1
    44     1     2    1
    45     2     5    1
    46    57    56    2
    47    56    55    1
    48     5     6    1
    49    11    13   ar
    50    11     8   ar
    51     6     8   ar
    52     6     7   ar
    53    13    14   ar
    54     8    10   ar
    55    54    55    1
    56    55    58    1
    57     7     9   ar
    58    14    12   ar
    59    10     9   ar
    60    10    12   ar
    61    58    59    1
    62    59    60    1
    63   109   108    1
    64    61    60   ar
    65    60    62   ar
    66   100    98   ar
    67    82    84   ar
    68    82    80   ar
    69    84    83   ar
    70   108   107    1
    71    80    79    1
    72    80    81   ar
    73    98    99   ar
    74    98    97    1
    75    83    81   ar
    76    79    76    1
    77    90    89    1
    78   107   106    1
    79    91    89    1
    80    97    96    1
    81    89    86    1
    82    77    76    1
    83    77    78    2
    84    76    75    1
    85    74    73    1
    86    71    73   ar
    87    71    69   ar
    88   106   105    1
    89    73    72   ar
    90    69    68   ar
    91    96    93    1
    92    86    87    1
    93    86    85    1
    94    92    87   am
    95    92    93    1
    96   105   102    1
    97    87    88    2
    98    93    94    1
    99    72    70   ar
   100    68    70   ar
   101    68    67    1
   102   102   101    1
   103   102   103    1
   104    94    95    2
   105    67    64    1
   106    63    64    1
   107   103   104    2
   108    64    65    1
   109    65    66    2
