@<TRIPOS>MOLECULE
tmp/1puaA00.pdb
 213 213 0 0 0
SMALL
GASTEIGER

@<TRIPOS>ATOM
      1  N         46.8370   19.2950   17.5590 N.3    28  GLN28      -0.1231
      2  CA        46.3530   20.4590   16.7660 C.3    28  GLN28       0.1698
      3  C         44.8840   20.7680   17.1140 C.2    28  GLN28       0.2592
      4  O         44.3580   21.7850   16.6470 O.2    28  GLN28      -0.2718
      5  CB        46.5270   20.2020   15.2670 C.3    28  GLN28       0.0381
      6  CG        47.9770   20.2600   14.7890 C.3    28  GLN28       0.0905
      7  CD        48.5990   21.6390   14.9610 C.2    28  GLN28       0.2608
      8  OE1       48.0370   22.6380   14.5280 O.2    28  GLN28      -0.2717
      9  NE2       49.7580   21.6920   15.6030 N.am   28  GLN28      -0.0878
     10  N         44.2180   19.9170   17.9010 N.am   29  LEU29      -0.1966
     11  CA        42.8000   20.1640   18.3060 C.3    29  LEU29       0.1713
     12  C         42.8140   19.8060   19.8250 C.2    29  LEU29       0.2458
     13  O         42.2410   18.7860   20.2290 O.2    29  LEU29      -0.2730
     14  CB        41.8300   19.2470   17.5440 C.3    29  LEU29       0.0310
     15  CG        41.7420   19.2700   16.0170 C.3    29  LEU29       0.0022
     16  CD1       40.9480   18.0810   15.5380 C.3    29  LEU29       0.0001
     17  CD2       41.1330   20.5670   15.5500 C.3    29  LEU29       0.0001
     18  N         43.4130   20.6740   20.6820 N.am   30  PRO30      -0.2716
     19  CA        43.4700   20.3960   22.1280 C.3    30  PRO30       0.1536
     20  C         42.1590   20.4910   22.9580 C.2    30  PRO30       0.2598
     21  O         42.1370   20.1100   24.1280 O.2    30  PRO30      -0.2715
     22  CB        44.5440   21.3670   22.6150 C.3    30  PRO30       0.0310
     23  CG        44.4040   22.5210   21.7110 C.3    30  PRO30       0.0237
     24  CD        44.1420   21.9230   20.3680 C.3    30  PRO30       0.0939
     25  N         41.0740   20.9160   22.3140 N.am   31  LYS31      -0.1964
     26  CA        39.7370   21.0660   22.9530 C.3    31  LYS31       0.1728
     27  C         39.0520   19.7080   22.8170 C.2    31  LYS31       0.2616
     28  O         37.9970   19.4800   23.4090 O.2    31  LYS31      -0.2715
     29  CB        38.8770   21.9610   22.1080 C.3    31  LYS31       0.0311
     30  CG        38.7580   23.3230   22.5340 C.3    31  LYS31       0.0038
     31  CD        37.3900   23.8330   22.1200 C.3    31  LYS31       0.0206
     32  CE        37.1740   23.9860   20.6440 C.3    31  LYS31       0.1093
     33  NZ        36.0850   24.9620   20.3590 N.3    31  LYS31      -0.1314
     34  N         39.5860   18.8710   21.9410 N.am   32  MET32      -0.1977
     35  CA        38.9910   17.5790   21.6410 C.3    32  MET32       0.1605
     36  C         39.5490   16.5930   22.6670 C.2    32  MET32       0.2287
     37  O         40.7400   16.6600   23.0120 O.2    32  MET32      -0.2864
     38  CB        39.4390   17.1430   20.2540 C.3    32  MET32       0.0413
     39  CG        38.4150   16.3920   19.4800 C.3    32  MET32       0.0598
     40  SD        37.0520   17.4130   19.0740 S.3    32  MET32      -0.1393
     41  CE        35.9570   16.3320   19.0210 C.3    32  MET32       0.0692
     42  N         38.3650   10.4840   22.3150 N.3    36  TYR36      -0.1241
     43  CA        37.2560   10.5970   21.3350 C.3    36  TYR36       0.1605
     44  C         37.9040   10.5340   19.9220 C.2    36  TYR36       0.2264
     45  O         37.2920   10.0030   18.9880 O.2    36  TYR36      -0.2867
     46  CB        36.4860   11.9080   21.5220 C.3    36  TYR36       0.0534
     47  CG        35.3170   12.0630   20.5730 C.ar   36  TYR36      -0.0201
     48  CD1       34.1590   11.2860   20.7230 C.ar   36  TYR36      -0.0009
     49  CD2       35.3710   12.9710   19.4970 C.ar   36  TYR36      -0.0009
     50  CE1       33.0740   11.4020   19.8180 C.ar   36  TYR36       0.0417
     51  CE2       34.2870   13.1020   18.5870 C.ar   36  TYR36       0.0417
     52  CZ        33.1460   12.3100   18.7590 C.ar   36  TYR36       0.1957
     53  OH        32.0970   12.4210   17.8830 O.3    36  TYR36      -0.2866
     54  N         37.2140    7.5580   16.9780 N.3    40  LEU40      -0.1245
     55  CA        36.6740    7.8000   15.6140 C.3    40  LEU40       0.1561
     56  C         37.7160    7.3520   14.5840 C.2    40  LEU40       0.2260
     57  O         37.3510    6.6720   13.6400 O.2    40  LEU40      -0.2867
     58  CB        36.2980    9.2570   15.3900 C.3    40  LEU40       0.0270
     59  CG        35.1450    9.7730   16.2440 C.3    40  LEU40       0.0019
     60  CD1       34.7970   11.0870   15.6930 C.3    40  LEU40       0.0001
     61  CD2       33.9240    8.8750   16.2350 C.3    40  LEU40       0.0001
     62  N         35.1940    4.7780    9.8110 N.3    46  HIS46      -0.1241
     63  CA        36.0080    5.9660    9.4350 C.3    46  HIS46       0.1621
     64  C         37.2270    5.5010    8.6670 C.2    46  HIS46       0.2264
     65  O         37.8030    4.4510    8.9360 O.2    46  HIS46      -0.2867
     66  CB        36.4770    6.7230   10.6500 C.3    46  HIS46       0.0745
     67  CG        35.3750    7.3900   11.3760 C.ar   46  HIS46       0.0817
     68  ND1       34.4780    6.6980   12.1590 N.ar   46  HIS46      -0.2268
     69  CD2       35.0020    8.6850   11.4240 C.ar   46  HIS46       0.1154
     70  CE1       33.6010    7.5380   12.6630 C.ar   46  HIS46       0.1986
     71  NE2       33.8990    8.7480   12.2310 N.ar   46  HIS46      -0.2212
     72  N         33.9690    9.9340    7.3980 N.3    65  ARG65      -0.1245
     73  CA        33.1040    8.7270    7.3710 C.3    65  ARG65       0.1563
     74  C         32.1300    9.0350    6.2250 C.2    65  ARG65       0.2260
     75  O         31.4690   10.0780    6.2080 O.2    65  ARG65      -0.2867
     76  CB        32.3280    8.5010    8.6680 C.3    65  ARG65       0.0307
     77  CG        31.2420    7.4130    8.5500 C.3    65  ARG65       0.0489
     78  CD        30.5420    7.1410    9.8390 C.3    65  ARG65       0.2205
     79  NE        29.4170    6.2210    9.6910 N.pl3  65  ARG65      -0.0865
     80  CZ        28.6070    5.8580   10.6810 C.cat  65  ARG65       0.5346
     81  NH1       28.7870    6.3340   11.8960 N.pl3  65  ARG65       0.1354
     82  NH2       27.6130    5.0150   10.4570 N.pl3  65  ARG65       0.1354
     83  N         30.9830   13.0770    6.3130 N.3    74  GLU74      -0.1231
     84  CA        31.2080   14.1760    7.2800 C.3    74  GLU74       0.1699
     85  C         32.6990   14.0460    7.6200 C.2    74  GLU74       0.2592
     86  O         33.2210   12.9530    7.8660 O.2    74  GLU74      -0.2718
     87  CB        30.3210   14.1490    8.5360 C.3    74  GLU74       0.0402
     88  CG        30.4960   15.4040    9.4890 C.3    74  GLU74       0.1161
     89  CD        29.8980   15.2750   10.8980 C.2    74  GLU74       0.3649
     90  OE1       30.3730   15.9310   11.8480 O.co2  74  GLU74      -0.2457
     91  OE2       28.9500   14.5050   11.0750 O.co2  74  GLU74      -0.2457
     92  N         33.3640   15.2000    7.5980 N.am   75  VAL75      -0.1966
     93  CA        34.8060   15.3250    7.8910 C.3    75  VAL75       0.1727
     94  C         34.8180   15.3110    9.4300 C.2    75  VAL75       0.2616
     95  O         34.1570   16.1260   10.0810 O.2    75  VAL75      -0.2715
     96  CB        35.3660   16.6480    7.3430 C.3    75  VAL75       0.0290
     97  CG1       36.7810   16.8740    7.8260 C.3    75  VAL75       0.0023
     98  CG2       35.3110   16.6390    5.8230 C.3    75  VAL75       0.0023
     99  N         35.6360   14.4150    9.9720 N.am   76  ALA76      -0.1963
    100  CA        35.7600   14.2090   11.4300 C.3    76  ALA76       0.1728
    101  C         36.7970   15.2090   11.9410 C.2    76  ALA76       0.2616
    102  O         36.4870   16.0230   12.8140 O.2    76  ALA76      -0.2715
    103  CB        36.1950   12.7770   11.7490 C.3    76  ALA76       0.0334
    104  N         38.0450   15.0520   11.4970 N.am   77  PHE77      -0.1960
    105  CA        39.1390   15.9240   11.9500 C.3    77  PHE77       0.1771
    106  C         39.9300   16.1540   10.6680 C.2    77  PHE77       0.2619
    107  O         39.8910   15.3480    9.7340 O.2    77  PHE77      -0.2715
    108  CB        40.0420   15.2070   12.9670 C.3    77  PHE77       0.0574
    109  CG        39.3070   14.5390   14.0970 C.ar   77  PHE77      -0.0200
    110  CD1       39.1650   13.1400   14.1240 C.ar   77  PHE77      -0.0042
    111  CD2       38.7060   15.3040   15.1140 C.ar   77  PHE77      -0.0042
    112  CE1       38.4200   12.5070   15.1530 C.ar   77  PHE77      -0.0003
    113  CE2       37.9580   14.6910   16.1490 C.ar   77  PHE77      -0.0003
    114  CZ        37.8120   13.2940   16.1690 C.ar   77  PHE77      -0.0000
    115  N         40.6510   17.2700   10.6620 N.am   78  LEU78      -0.1977
    116  CA        41.5150   17.6860    9.5540 C.3    78  LEU78       0.1596
    117  C         42.5910   18.4620   10.3290 C.2    78  LEU78       0.2287
    118  O         42.2680   19.2390   11.2350 O.2    78  LEU78      -0.2864
    119  CB        40.7650   18.6050    8.5780 C.3    78  LEU78       0.0297
    120  CG        41.5300   19.5450    7.6280 C.3    78  LEU78       0.0022
    121  CD1       42.4970   18.8110    6.7220 C.3    78  LEU78       0.0001
    122  CD2       40.5350   20.2510    6.7960 C.3    78  LEU78       0.0001
    123  N         30.5600   19.1970    7.5980 N.3   111  THR111     -0.1203
    124  CA        31.5500   19.3080    8.6810 C.3   111  THR111      0.1994
    125  C         30.9810   20.3620    9.6350 C.2   111  THR111      0.2618
    126  O         30.3710   21.3500    9.2160 O.2   111  THR111     -0.2717
    127  CB        32.9770   19.7060    8.1780 C.3   111  THR111      0.1784
    128  OG1       33.9170   19.3910    9.1980 O.3   111  THR111     -0.2211
    129  CG2       33.1100   21.1840    7.8000 C.3   111  THR111      0.0376
    130  N         31.2100   20.1250   10.9230 N.am  112  TYR112     -0.1961
    131  CA        30.7920   21.0470   11.9800 C.3   112  TYR112      0.1771
    132  C         32.0580   21.8920   12.1520 C.2   112  TYR112      0.2619
    133  O         33.1590   21.3540   12.2190 O.2   112  TYR112     -0.2715
    134  CB        30.4490   20.2880   13.2510 C.3   112  TYR112      0.0574
    135  CG        28.9870   19.9510   13.3220 C.ar  112  TYR112     -0.0198
    136  CD1       28.5230   18.6500   13.0250 C.ar  112  TYR112     -0.0009
    137  CD2       28.0370   20.9590   13.6020 C.ar  112  TYR112     -0.0009
    138  CE1       27.1300   18.3660   12.9930 C.ar  112  TYR112      0.0417
    139  CE2       26.6510   20.6930   13.5760 C.ar  112  TYR112      0.0417
    140  CZ        26.2050   19.4020   13.2670 C.ar  112  TYR112      0.1957
    141  OH        24.8530   19.1780   13.2140 O.3   112  TYR112     -0.2866
    142  N         31.8900   23.2110   12.1540 N.am  113  ALA113     -0.1963
    143  CA        33.0310   24.1440   12.2910 C.3   113  ALA113      0.1728
    144  C         32.4780   25.2530   13.1880 C.2   113  ALA113      0.2616
    145  O         31.2830   25.5430   13.1680 O.2   113  ALA113     -0.2715
    146  CB        33.4070   24.7160   10.9290 C.3   113  ALA113      0.0334
    147  N         33.3450   25.8170   14.0200 N.am  114  ASP114     -0.1957
    148  CA        32.9560   26.9480   14.8780 C.3   114  ASP114      0.1840
    149  C         34.2320   27.8120   14.8920 C.2   114  ASP114      0.2622
    150  O         35.3320   27.3420   14.5760 O.2   114  ASP114     -0.2715
    151  CB        32.4470   26.5330   16.2900 C.3   114  ASP114      0.1450
    152  CG        33.5490   26.0690   17.2480 C.2   114  ASP114      0.3671
    153  OD1       34.5760   25.5270   16.8000 O.co2 114  ASP114     -0.2456
    154  OD2       33.3590   26.2250   18.4740 O.co2 114  ASP114     -0.2456
    155  N         34.0060   29.0970   15.1520 N.am  115  ASN115     -0.1958
    156  CA        35.0130   30.1790   15.2630 C.3   115  ASN115      0.1819
    157  C         35.8270   30.3100   13.9270 C.2   115  ASN115      0.2621
    158  O         35.2210   30.5040   12.8820 O.2   115  ASN115     -0.2715
    159  CB        35.8920   30.0200   16.4970 C.3   115  ASN115      0.1195
    160  CG        35.0970   29.9800   17.8140 C.2   115  ASN115      0.2630
    161  OD1       33.9870   30.5000   17.9080 O.2   115  ASN115     -0.2716
    162  ND2       35.6870   29.3650   18.8390 N.am  115  ASN115     -0.0877
    163  N         37.1570   30.1530   13.9640 N.am  116  PHE116     -0.1960
    164  CA        38.0560   30.3770   12.7660 C.3   116  PHE116      0.1771
    165  C         37.7190   29.4180   11.5940 C.2   116  PHE116      0.2619
    166  O         37.7850   29.8440   10.4400 O.2   116  PHE116     -0.2715
    167  CB        39.5710   30.2840   13.1330 C.3   116  PHE116      0.0574
    168  CG        40.2390   28.9310   12.8290 C.ar  116  PHE116     -0.0200
    169  CD1       40.7520   28.6410   11.5340 C.ar  116  PHE116     -0.0042
    170  CD2       40.3500   27.9480   13.8250 C.ar  116  PHE116     -0.0042
    171  CE1       41.3560   27.3920   11.2450 C.ar  116  PHE116     -0.0003
    172  CE2       40.9580   26.6980   13.5510 C.ar  116  PHE116     -0.0003
    173  CZ        41.4600   26.4220   12.2540 C.ar  116  PHE116     -0.0000
    174  N         37.4950   28.1340   11.8940 N.am  117  ALA117     -0.1977
    175  CA        37.2880   27.0500   10.8770 C.3   117  ALA117      0.1597
    176  C         36.1330   27.3880    9.9430 C.2   117  ALA117      0.2287
    177  O         36.1000   26.8470    8.8350 O.2   117  ALA117     -0.2864
    178  CB        37.0580   25.7400   11.5230 C.3   117  ALA117      0.0319
    179  N         38.1640   28.9700    7.2650 N.3   120  TYR120     -0.1227
    180  CA        39.1050   28.0670    6.5080 C.3   120  TYR120      0.1736
    181  C         38.2130   27.1930    5.5680 C.2   120  TYR120      0.2595
    182  O         38.6160   26.9140    4.4360 O.2   120  TYR120     -0.2718
    183  CB        39.9370   27.1570    7.4530 C.3   120  TYR120      0.0548
    184  CG        40.6050   25.9530    6.7690 C.ar  120  TYR120     -0.0200
    185  CD1       41.8100   26.0920    6.0390 C.ar  120  TYR120     -0.0009
    186  CD2       39.9690   24.6910    6.7570 C.ar  120  TYR120     -0.0009
    187  CE1       42.3560   24.9880    5.2970 C.ar  120  TYR120      0.0417
    188  CE2       40.4910   23.6080    6.0230 C.ar  120  TYR120      0.0417
    189  CZ        41.6810   23.7550    5.2940 C.ar  120  TYR120      0.1957
    190  OH        42.1440   22.6780    4.5560 O.3   120  TYR120     -0.2866
    191  N         37.0600   26.7370    6.0570 N.am  121  PHE121     -0.1976
    192  CA        36.1840   25.8510    5.2660 C.3   121  PHE121      0.1639
    193  C         35.4920   26.6840    4.1710 C.2   121  PHE121      0.2290
    194  O         35.2880   26.1620    3.0770 O.2   121  PHE121     -0.2864
    195  CB        35.2160   25.0780    6.1590 C.3   121  PHE121      0.0560
    196  CG        35.8400   23.8740    6.7860 C.ar  121  PHE121     -0.0200
    197  CD1       36.1130   23.8410    8.1670 C.ar  121  PHE121     -0.0042
    198  CD2       36.2580   22.7950    5.9810 C.ar  121  PHE121     -0.0042
    199  CE1       36.8070   22.7530    8.7450 C.ar  121  PHE121     -0.0003
    200  CE2       36.9500   21.6990    6.5360 C.ar  121  PHE121     -0.0003
    201  CZ        37.2290   21.6790    7.9220 C.ar  121  PHE121     -0.0000
    202  N         23.6330   19.3560   16.3090 N.3   144  TYR144     -0.1241
    203  CA        24.1710   20.0830   17.4680 C.3   144  TYR144      0.1605
    204  C         23.6920   21.5110   17.1870 C.2   144  TYR144      0.2264
    205  O         23.7580   21.9910   16.0490 O.2   144  TYR144     -0.2867
    206  CB        25.6930   20.0540   17.4750 C.3   144  TYR144      0.0534
    207  CG        26.2900   18.6830   17.6370 C.ar  144  TYR144     -0.0201
    208  CD1       26.9030   18.0400   16.5470 C.ar  144  TYR144     -0.0009
    209  CD2       26.3280   18.0520   18.8950 C.ar  144  TYR144     -0.0009
    210  CE1       27.5590   16.7980   16.6940 C.ar  144  TYR144      0.0417
    211  CE2       26.9820   16.8060   19.0650 C.ar  144  TYR144      0.0417
    212  CZ        27.5930   16.1860   17.9540 C.ar  144  TYR144      0.1957
    213  OH        28.1790   14.9500   18.0860 O.3   144  TYR144     -0.2866
@<TRIPOS>BOND
     1   194   193    2
     2   193   192    1
     3   182   181    2
     4   190   189    1
     5   192   191    1
     6   192   195    1
     7   189   187   ar
     8   189   188   ar
     9   187   185   ar
    10   181   191   am
    11   181   180    1
    12    98    96    1
    13   198   200   ar
    14   198   196   ar
    15   188   186   ar
    16   185   184   ar
    17   195   196    1
    18    75    74    2
    19    74    73    1
    20    83    84    1
    21   180   179    1
    22   180   183    1
    23   200   201   ar
    24   121   120    1
    25   186   184   ar
    26   184   183    1
    27   196   197   ar
    28   122   120    1
    29    84    85    1
    30    84    87    1
    31    96    97    1
    32    96    93    1
    33    73    72    1
    34    73    76    1
    35    92    85   am
    36    92    93    1
    37   123   124    1
    38    85    86    2
    39   120   119    1
    40   129   127    1
    41    93    94    1
    42   201   199   ar
    43   197   199   ar
    44   127   124    1
    45   127   128    1
    46    87    88    1
    47    77    76    1
    48    77    78    1
    49   119   116    1
    50    64    65    2
    51    64    63    1
    52   124   125    1
    53   177   176    2
    54   126   125    2
    55    94    99   am
    56    94    95    2
    57    63    62    1
    58    63    66    1
    59    88    89    1
    60   116   117    1
    61   116   115    1
    62   125   130   am
    63    79    78    1
    64    79    80    2
    65   107   106    2
    66   176   175    1
    67    99   100    1
    68   117   118    2
    69   166   165    2
    70    82    80    1
    71    66    67    1
    72   115   106   am
    73   106   105    1
    74    80    81    1
    75   175   178    1
    76   175   174    1
    77    89    91   ar
    78    89    90   ar
    79   130   131    1
    80   146   143    1
    81   171   169   ar
    82   171   173   ar
    83    67    69   ar
    84    67    68   ar
    85    69    71   ar
    86   100   103    1
    87   100   101    1
    88   104   101   am
    89   104   105    1
    90   169   168   ar
    91   165   174   am
    92   165   164    1
    93   101   102    2
    94   105   108    1
    95   131   132    1
    96   131   134    1
    97   132   142   am
    98   132   133    2
    99   142   143    1
   100    68    70   ar
   101    71    70   ar
   102   173   172   ar
   103   143   144    1
   104   164   167    1
   105   164   163    1
   106   168   167    1
   107   168   170   ar
   108   158   157    2
   109   108   109    1
   110   138   136   ar
   111   138   140   ar
   112   136   135   ar
   113   145   144    2
   114   144   147   am
   115   141   140    1
   116   134   135    1
   117   140   139   ar
   118   135   137   ar
   119   172   170   ar
   120   139   137   ar
   121    57    56    2
   122   157   163   am
   123   157   156    1
   124   147   148    1
   125   109   110   ar
   126   109   111   ar
   127   110   112   ar
   128     8     7    2
   129   150   149    2
   130    56    55    1
   131     6     7    1
   132     6     5    1
   133   148   149    1
   134   148   151    1
   135   149   155   am
   136     7     9   am
   137   111   113   ar
   138   155   156    1
   139   112   114   ar
   140   156   159    1
   141     5     2    1
   142    58    55    1
   143    58    59    1
   144    16    15    1
   145    17    15    1
   146    55    54    1
   147    60    59    1
   148    15    14    1
   149   205   204    2
   150   113   114   ar
   151    61    59    1
   152   151   152    1
   153   202   203    1
   154   159   160    1
   155   208   210   ar
   156   208   207   ar
   157     4     3    2
   158   210   212   ar
   159     2     3    1
   160     2     1    1
   161   153   152   ar
   162     3    10   am
   163   204   203    1
   164   152   154   ar
   165   203   206    1
   166   206   207    1
   167    14    11    1
   168   207   209   ar
   169   160   161    2
   170   160   162   am
   171    53    52    1
   172    10    11    1
   173   212   213    1
   174   212   211   ar
   175    11    12    1
   176    51    52   ar
   177    51    49   ar
   178    52    50   ar
   179   209   211   ar
   180    45    44    2
   181    41    40    1
   182    40    39    1
   183    39    38    1
   184    49    47   ar
   185    50    48   ar
   186    12    13    2
   187    12    18   am
   188    44    43    1
   189    38    35    1
   190    33    32    1
   191    24    18    1
   192    24    23    1
   193    47    48   ar
   194    47    46    1
   195    32    31    1
   196    18    19    1
   197    43    46    1
   198    43    42    1
   199    35    34    1
   200    35    36    1
   201    23    22    1
   202    34    27   am
   203    29    30    1
   204    29    26    1
   205    31    30    1
   206    19    22    1
   207    19    20    1
   208    25    26    1
   209    25    20   am
   210    36    37    2
   211    27    26    1
   212    27    28    2
   213    20    21    2
