@<TRIPOS>MOLECULE
tmp/1pujA00.pdb
 130 126 0 0 0
SMALL
GASTEIGER

@<TRIPOS>ATOM
      1  N         13.6100   42.2360   57.7710 N.3    50  ASN50      -0.1225
      2  CA        15.0200   42.2360   58.1810 C.3    50  ASN50       0.1785
      3  C         15.9310   42.1790   56.9450 C.2    50  ASN50       0.2597
      4  O         15.4670   41.8960   55.8380 O.2    50  ASN50      -0.2718
      5  CB        15.2830   41.0140   59.0880 C.3    50  ASN50       0.1169
      6  CG        16.5510   41.1520   59.9200 C.2    50  ASN50       0.2627
      7  OD1       17.3360   40.2030   60.0640 O.2    50  ASN50      -0.2716
      8  ND2       16.7460   42.3310   60.4910 N.am   50  ASN50      -0.0877
      9  N         17.2230   42.4270   57.1520 N.am   51  LYS51      -0.1980
     10  CA        18.2220   42.4420   56.0830 C.3    51  LYS51       0.1596
     11  C         17.8460   43.4530   55.0020 C.2    51  LYS51       0.2287
     12  O         18.1130   43.2470   53.8160 O.2    51  LYS51      -0.2864
     13  CB        18.3920   41.0460   55.4570 C.3    51  LYS51       0.0298
     14  CG        18.8150   39.9800   56.4570 C.3    51  LYS51       0.0038
     15  CD        19.1030   38.6270   55.8230 C.3    51  LYS51       0.0206
     16  CE        19.4430   37.6100   56.9030 C.3    51  LYS51       0.1093
     17  NZ        19.8610   36.2940   56.3530 N.3    51  LYS51      -0.1314
     18  N         19.1900   46.0820   54.3830 N.3    53  ASP53      -0.1225
     19  CA        20.4180   46.6090   53.7940 C.3    53  ASP53       0.1805
     20  C         20.8530   45.7800   52.5800 C.2    53  ASP53       0.2597
     21  O         21.5960   46.2600   51.7270 O.2    53  ASP53      -0.2718
     22  CB        21.5390   46.6390   54.8470 C.3    53  ASP53       0.1424
     23  CG        21.7790   45.2830   55.4870 C.2    53  ASP53       0.3668
     24  OD1       22.8920   44.7330   55.3310 O.co2  53  ASP53      -0.2456
     25  OD2       20.8560   44.7600   56.1520 O.co2  53  ASP53      -0.2456
     26  N         20.3660   44.5450   52.5020 N.am   54  LYS54      -0.1979
     27  CA        20.7020   43.6240   51.4090 C.3    54  LYS54       0.1596
     28  C         19.6750   43.6410   50.2760 C.2    54  LYS54       0.2287
     29  O         19.9070   43.0590   49.2180 O.2    54  LYS54      -0.2864
     30  CB        20.7960   42.1880   51.9500 C.3    54  LYS54       0.0298
     31  CG        21.7620   42.0040   53.1150 C.3    54  LYS54       0.0038
     32  CD        21.7380   40.5700   53.6620 C.3    54  LYS54       0.0206
     33  CE        22.6000   39.6030   52.8320 C.3    54  LYS54       0.1093
     34  NZ        24.0670   39.8480   53.0050 N.3    54  LYS54      -0.1314
     35  N         17.7070   46.5650   59.8620 N.3    78  ASN78      -0.1225
     36  CA        19.0160   45.9350   59.6540 C.3    78  ASN78       0.1785
     37  C         19.4070   45.5430   61.0770 C.2    78  ASN78       0.2598
     38  O         19.7520   46.4040   61.8940 O.2    78  ASN78      -0.2718
     39  CB        20.0270   46.9420   59.0810 C.3    78  ASN78       0.1169
     40  CG        21.4170   46.3390   58.8650 C.2    78  ASN78       0.2627
     41  OD1       21.7560   45.2940   59.4290 O.2    78  ASN78      -0.2716
     42  ND2       22.2340   47.0140   58.0500 N.am   78  ASN78      -0.0877
     43  N         19.3160   44.2560   61.3950 N.am   79  SER79      -0.1938
     44  CA        19.6400   43.7980   62.7430 C.3    79  SER79       0.2055
     45  C         21.1260   43.8130   63.0450 C.2    79  SER79       0.2642
     46  O         21.5210   43.7430   64.2070 O.2    79  SER79      -0.2714
     47  CB        19.0770   42.3920   62.9600 C.3    79  SER79       0.2130
     48  OG        17.6600   42.4120   62.9740 O.3    79  SER79      -0.2179
     49  N         21.9510   43.8940   62.0050 N.am   80  VAL80      -0.1977
     50  CA        23.3900   43.9240   62.2130 C.3    80  VAL80       0.1596
     51  C         23.8910   45.2890   62.6730 C.2    80  VAL80       0.2287
     52  O         24.6520   45.3760   63.6380 O.2    80  VAL80      -0.2864
     53  CB        24.1480   43.4920   60.9430 C.3    80  VAL80       0.0276
     54  CG1       25.6400   43.7670   61.1100 C.3    80  VAL80       0.0022
     55  CG2       23.9160   42.0090   60.6930 C.3    80  VAL80       0.0022
     56  N         14.1840   29.9390   59.1080 N.3   121  PRO121     -0.2102
     57  CA        15.5940   29.7830   59.4590 C.3   121  PRO121      0.1504
     58  C         16.5030   30.8290   58.8210 C.2   121  PRO121      0.2576
     59  O         16.2860   31.2410   57.6790 O.2   121  PRO121     -0.2718
     60  CB        15.9170   28.3730   58.9660 C.3   121  PRO121      0.0282
     61  CG        14.6050   27.6530   59.1290 C.3   121  PRO121      0.0208
     62  CD        13.6270   28.6740   58.5900 C.3   121  PRO121      0.0893
     63  N         17.5030   31.2600   59.5840 N.am  122  ASN122     -0.1961
     64  CA        18.5080   32.2120   59.1220 C.3   122  ASN122      0.1819
     65  C         18.0060   33.6180   58.7660 C.2   122  ASN122      0.2621
     66  O         18.7380   34.4110   58.1640 O.2   122  ASN122     -0.2715
     67  CB        19.2470   31.5910   57.9300 C.3   122  ASN122      0.1195
     68  CG        20.6230   32.1840   57.7180 C.2   122  ASN122      0.2630
     69  OD1       20.8310   32.9670   56.7960 O.2   122  ASN122     -0.2716
     70  ND2       21.5730   31.8140   58.5730 N.am  122  ASN122     -0.0877
     71  N         16.7760   33.9380   59.1570 N.am  123  VAL123     -0.1963
     72  CA        16.2030   35.2480   58.8550 C.3   123  VAL123      0.1727
     73  C         16.8190   36.3650   59.7130 C.2   123  VAL123      0.2617
     74  O         16.7120   37.5520   59.3840 O.2   123  VAL123     -0.2715
     75  CB        14.6650   35.2320   59.0550 C.3   123  VAL123      0.0290
     76  CG1       14.3200   35.2400   60.5420 C.3   123  VAL123      0.0023
     77  CG2       14.0330   36.4060   58.3360 C.3   123  VAL123      0.0023
     78  N         17.4570   35.9750   60.8120 N.am  124  GLY124     -0.1940
     79  CA        18.1040   36.9340   61.6960 C.3   124  GLY124      0.2014
     80  C         17.4750   37.1180   63.0670 C.2   124  GLY124      0.2639
     81  O         17.7090   38.1370   63.7210 O.2   124  GLY124     -0.2714
     82  N         16.6920   36.1380   63.5140 N.am  125  LYS125     -0.1963
     83  CA        16.0300   36.2100   64.8110 C.3   125  LYS125      0.1728
     84  C         17.0000   36.4090   65.9770 C.2   125  LYS125      0.2617
     85  O         16.7600   37.2400   66.8600 O.2   125  LYS125     -0.2715
     86  CB        15.1860   34.9460   65.0470 C.3   125  LYS125      0.0311
     87  CG        14.0550   34.7480   64.0380 C.3   125  LYS125      0.0038
     88  CD        13.2300   33.4970   64.3310 C.3   125  LYS125      0.0206
     89  CE        14.0350   32.2330   64.1180 C.3   125  LYS125      0.1093
     90  NZ        14.5600   32.1240   62.7210 N.3   125  LYS125     -0.1314
     91  N         18.0890   35.6510   65.9990 N.am  126  SER126     -0.1936
     92  CA        19.0680   35.7860   67.0840 C.3   126  SER126      0.2055
     93  C         19.8260   37.0990   67.0420 C.2   126  SER126      0.2643
     94  O         20.0820   37.7140   68.0770 O.2   126  SER126     -0.2714
     95  CB        20.0740   34.6380   67.0460 C.3   126  SER126      0.2130
     96  OG        19.5310   33.5090   67.6980 O.3   126  SER126     -0.2179
     97  N         20.1990   37.5170   65.8410 N.am  127  THR127     -0.1950
     98  CA        20.9310   38.7620   65.6690 C.3   127  THR127      0.1897
     99  C         20.1030   39.9100   66.2500 C.2   127  THR127      0.2313
    100  O         20.6100   40.7270   67.0250 O.2   127  THR127     -0.2863
    101  CB        21.2140   39.0100   64.1750 C.3   127  THR127      0.1794
    102  OG1       21.9180   37.8800   63.6390 O.3   127  THR127     -0.2208
    103  CG2       22.0660   40.2530   63.9770 C.3   127  THR127      0.0378
    104  N         12.4050   31.7640   69.2300 N.3   152  THR152     -0.1204
    105  CA        11.9390   30.4850   68.7080 C.3   152  THR152      0.1979
    106  C         12.8450   30.0470   67.5540 C.2   152  THR152      0.2460
    107  O         13.4140   30.8810   66.8490 O.2   152  THR152     -0.2732
    108  CB        10.4860   30.5870   68.1930 C.3   152  THR152      0.1783
    109  OG1       10.4280   31.5040   67.0920 O.3   152  THR152     -0.2211
    110  CG2        9.5600   31.0820   69.3010 C.3   152  THR152      0.0376
    111  N         12.9960   28.7300   67.3470 N.am  153  PRO153     -0.2717
    112  CA        13.8480   28.2300   66.2610 C.3   153  PRO153      0.1535
    113  C         13.2610   28.4890   64.8720 C.2   153  PRO153      0.2599
    114  O         12.0460   28.5900   64.7130 O.2   153  PRO153     -0.2715
    115  CB        13.9540   26.7400   66.5730 C.3   153  PRO153      0.0310
    116  CG        12.6040   26.4380   67.1630 C.3   153  PRO153      0.0237
    117  CD        12.4010   27.6120   68.1060 C.3   153  PRO153      0.0939
    118  N         14.1350   28.5980   63.8750 N.am  154  GLY154     -0.1955
    119  CA        13.6820   28.8260   62.5170 C.3   154  GLY154      0.1869
    120  C         12.7550   27.7110   62.0830 C.2   154  GLY154      0.2309
    121  O         13.0220   26.5380   62.3480 O.2   154  GLY154     -0.2863
    122  N         26.2760   40.1590   48.7730 N.3   250  GLU250     -0.1245
    123  CA        26.0270   41.4320   48.1180 C.3   250  GLU250      0.1567
    124  C         27.0310   41.8240   47.0390 C.2   250  GLU250      0.2260
    125  O         27.2310   43.0110   46.7820 O.2   250  GLU250     -0.2867
    126  CB        25.9480   42.5290   49.1890 C.3   250  GLU250      0.0388
    127  CG        24.8550   42.2720   50.2330 C.3   250  GLU250      0.1160
    128  CD        25.0740   43.0170   51.5370 C.2   250  GLU250      0.3649
    129  OE1       25.3460   44.2370   51.4900 O.co2 250  GLU250     -0.2457
    130  OE2       24.9650   42.3770   52.6130 O.co2 250  GLU250     -0.2457
@<TRIPOS>BOND
     1   125   124    2
     2   124   123    1
     3   123   122    1
     4   123   126    1
     5   126   127    1
     6    29    28    2
     7   127   128    1
     8    28    27    1
     9    27    30    1
    10    27    26    1
    11   129   128   ar
    12   128   130   ar
    13    21    20    2
    14    30    31    1
    15    26    20   am
    16    20    19    1
    17    33    34    1
    18    33    32    1
    19    31    32    1
    20    19    18    1
    21    19    22    1
    22    12    11    2
    23    22    23    1
    24    11    10    1
    25    24    23   ar
    26    13    10    1
    27    13    14    1
    28    23    25   ar
    29    15    14    1
    30    15    16    1
    31     4     3    2
    32    10     9    1
    33    17    16    1
    34    69    68    2
    35     3     9   am
    36     3     2    1
    37    59    58    2
    38    68    67    1
    39    68    70   am
    40     1     2    1
    41    67    64    1
    42    42    40   am
    43    66    65    2
    44     2     5    1
    45    77    75    1
    46    62    56    1
    47    62    61    1
    48    65    64    1
    49    65    71   am
    50    58    57    1
    51    58    63   am
    52    72    75    1
    53    72    71    1
    54    72    73    1
    55    40    39    1
    56    40    41    2
    57    60    61    1
    58    60    57    1
    59    75    76    1
    60    39    36    1
    61     5     6    1
    62    56    57    1
    63    64    63    1
    64    74    73    2
    65    36    35    1
    66    36    37    1
    67    73    78   am
    68     6     7    2
    69     6     8   am
    70    55    53    1
    71    78    79    1
    72    53    54    1
    73    53    50    1
    74    37    43   am
    75    37    38    2
    76    43    44    1
    77    79    80    1
    78    49    50    1
    79    49    45   am
    80   120   121    2
    81   120   119    1
    82    50    51    1
    83   119   118    1
    84    51    52    2
    85    90    89    1
    86    44    47    1
    87    44    45    1
    88    47    48    1
    89    45    46    2
    90    80    82   am
    91    80    81    2
    92    82    83    1
    93   102   101    1
    94   118   113   am
    95   103   101    1
    96    87    88    1
    97    87    86    1
    98    89    88    1
    99   101    98    1
   100   114   113    2
   101    83    86    1
   102    83    84    1
   103   113   112    1
   104    98    97    1
   105    98    99    1
   106    97    93   am
   107    84    91   am
   108    84    85    2
   109    91    92    1
   110    99   100    2
   111   112   115    1
   112   112   111    1
   113   115   116    1
   114   107   106    2
   115    93    92    1
   116    93    94    2
   117    95    92    1
   118    95    96    1
   119   109   108    1
   120   116   117    1
   121   111   106   am
   122   111   117    1
   123   106   105    1
   124   108   105    1
   125   108   110    1
   126   105   104    1
