@<TRIPOS>MOLECULE
tmp/1puoB00.pdb
 134 127 0 0 0
SMALL
GASTEIGER

@<TRIPOS>ATOM
      1  N          5.7020   -5.1380    6.3740 N.3     6  PHE6       -0.1241
      2  CA         6.0320   -4.7630    4.9850 C.3     6  PHE6        0.1605
      3  C          6.2700   -6.0090    4.1300 C.2     6  PHE6        0.2264
      4  O          5.7210   -6.1160    3.0440 O.2     6  PHE6       -0.2867
      5  CB         7.2500   -3.8410    4.9050 C.3     6  PHE6        0.0534
      6  CG         7.6900   -3.5560    3.4950 C.ar    6  PHE6       -0.0203
      7  CD1        7.1160   -2.5220    2.7680 C.ar    6  PHE6       -0.0042
      8  CD2        8.6340   -4.3560    2.8710 C.ar    6  PHE6       -0.0042
      9  CE1        7.5070   -2.2820    1.4600 C.ar    6  PHE6       -0.0003
     10  CE2        9.0220   -4.1180    1.5560 C.ar    6  PHE6       -0.0003
     11  CZ         8.4640   -3.0810    0.8470 C.ar    6  PHE6       -0.0000
     12  N          3.1280   -7.9780    3.4100 N.3     9  VAL9       -0.1231
     13  CA         2.3430   -7.3650    2.3510 C.3     9  VAL9        0.1692
     14  C          3.0140   -7.6170    0.9970 C.2     9  VAL9        0.2592
     15  O          2.3400   -7.8850    0.0150 O.2     9  VAL9       -0.2718
     16  CB         2.1270   -5.8550    2.5940 C.3     9  VAL9        0.0266
     17  CG1        1.6280   -5.1530    1.3290 C.3     9  VAL9        0.0020
     18  CG2        1.1440   -5.6540    3.7390 C.3     9  VAL9        0.0020
     19  N          4.3370   -7.5140    0.9440 N.am   10  PHE10      -0.1976
     20  CA         5.0730   -7.7510   -0.2750 C.3    10  PHE10       0.1639
     21  C          4.7950   -9.1740   -0.7120 C.2    10  PHE10       0.2290
     22  O          4.5350   -9.4360   -1.8790 O.2    10  PHE10      -0.2864
     23  CB         6.6010   -7.5690   -0.0590 C.3    10  PHE10       0.0560
     24  CG         7.4070   -7.8850   -1.2720 C.ar   10  PHE10      -0.0200
     25  CD1        7.2240   -7.1660   -2.4520 C.ar   10  PHE10      -0.0042
     26  CD2        8.3230   -8.9340   -1.2800 C.ar   10  PHE10      -0.0042
     27  CE1        7.9290   -7.4710   -3.5910 C.ar   10  PHE10      -0.0003
     28  CE2        9.0310   -9.2430   -2.4360 C.ar   10  PHE10      -0.0003
     29  CZ         8.8270   -8.4990   -3.5940 C.ar   10  PHE10      -0.0000
     30  N          1.2790   -9.3600   -2.1730 N.3    13  VAL13      -0.1245
     31  CA         1.2410   -8.6770   -3.4690 C.3    13  VAL13       0.1561
     32  C          1.9390   -9.5030   -4.5680 C.2    13  VAL13       0.2260
     33  O          1.3380   -9.8240   -5.5980 O.2    13  VAL13      -0.2867
     34  CB         1.8950   -7.2780   -3.3420 C.3    13  VAL13       0.0252
     35  CG1        2.1120   -6.6350   -4.7380 C.3    13  VAL13       0.0019
     36  CG2        1.0520   -6.3850   -2.4570 C.3    13  VAL13       0.0019
     37  N         -3.5880   -1.2550   -3.8620 N.3    38  MET38      -0.1245
     38  CA        -2.6700   -2.3730   -3.6290 C.3    38  MET38       0.1570
     39  C         -3.0360   -3.5840   -4.4870 C.2    38  MET38       0.2261
     40  O         -2.1710   -4.3210   -4.9450 O.2    38  MET38      -0.2867
     41  CB        -2.6520   -2.7500   -2.1540 C.3    38  MET38       0.0387
     42  CG        -2.1190   -1.6380   -1.2310 C.3    38  MET38       0.0595
     43  SD        -0.4850   -0.9890   -1.6620 S.3    38  MET38      -0.1393
     44  CE         0.4740   -2.4430   -1.4320 C.3    38  MET38       0.0692
     45  N         -1.5940   -3.1860   -7.8880 N.3    41  ILE41      -0.1245
     46  CA        -0.1890   -3.5860   -7.8960 C.3    41  ILE41       0.1561
     47  C         -0.1190   -5.1170   -7.9660 C.2    41  ILE41       0.2260
     48  O          0.5940   -5.6900   -8.8000 O.2    41  ILE41      -0.2867
     49  CB         0.5710   -3.0820   -6.6840 C.3    41  ILE41       0.0252
     50  CG1        0.5690   -1.5630   -6.6080 C.3    41  ILE41       0.0019
     51  CG2        2.0410   -3.5720   -6.7670 C.3    41  ILE41       0.0019
     52  CD1        0.9730   -1.0170   -5.2310 C.3    41  ILE41       0.0001
     53  N          1.6360   -8.1830  -10.8020 N.3    45  TYR45      -0.1241
     54  CA         2.3750   -9.4080  -10.5030 C.3    45  TYR45       0.1605
     55  C          1.6990  -10.6840  -11.0240 C.2    45  TYR45       0.2264
     56  O          2.3600  -11.5210  -11.6500 O.2    45  TYR45      -0.2867
     57  CB         2.6060   -9.5240   -9.0090 C.3    45  TYR45       0.0534
     58  CG         3.6670   -8.6040   -8.5150 C.ar   45  TYR45      -0.0201
     59  CD1        5.0030   -8.9970   -8.5030 C.ar   45  TYR45      -0.0009
     60  CD2        3.3540   -7.3260   -8.0920 C.ar   45  TYR45      -0.0009
     61  CE1        5.9860   -8.1460   -8.0540 C.ar   45  TYR45       0.0417
     62  CE2        4.3470   -6.4550   -7.6430 C.ar   45  TYR45       0.0417
     63  CZ         5.6500   -6.8750   -7.6240 C.ar   45  TYR45       0.1957
     64  OH         6.6400   -6.0280   -7.1820 O.3    45  TYR45      -0.2866
     65  N         11.4740  -10.3700   -9.1000 N.3    56  ASP56      -0.1239
     66  CA        11.1720   -9.2080   -8.2750 C.3    56  ASP56       0.1674
     67  C         11.5020   -9.5140   -6.8200 C.2    56  ASP56       0.2266
     68  O         11.9890   -8.6580   -6.1010 O.2    56  ASP56      -0.2867
     69  CB         9.7110   -8.7660   -8.4540 C.3    56  ASP56       0.1410
     70  CG         9.4440   -7.3640   -7.8980 C.2    56  ASP56       0.3668
     71  OD1        9.6510   -6.3710   -8.6240 O.co2  56  ASP56      -0.2456
     72  OD2        9.0170   -7.1510   -6.7400 O.co2  56  ASP56      -0.2456
     73  N         14.0690   -7.5850   -4.1630 N.3    60  MET60      -0.1245
     74  CA        13.7010   -7.1810   -2.8070 C.3    60  MET60       0.1570
     75  C         14.6350   -7.8010   -1.7520 C.2    60  MET60       0.2261
     76  O         14.9860   -7.1390   -0.7730 O.2    60  MET60      -0.2867
     77  CB        12.2390   -7.5160   -2.5080 C.3    60  MET60       0.0387
     78  CG        11.7720   -7.0480   -1.1340 C.3    60  MET60       0.0595
     79  SD        11.9010   -5.2770   -0.9360 S.3    60  MET60      -0.1393
     80  CE        10.5620   -4.7570   -1.9900 C.3    60  MET60       0.0692
     81  N         13.2140    2.3140   -2.9870 N.3    79  ASP79      -0.1225
     82  CA        12.9610    1.4430   -4.1190 C.3    79  ASP79       0.1805
     83  C         11.4640    1.4410   -4.4180 C.2    79  ASP79       0.2597
     84  O         11.0540    1.5160   -5.5770 O.2    79  ASP79      -0.2718
     85  CB        13.4770    0.0350   -3.8050 C.3    79  ASP79       0.1424
     86  CG        13.0310   -0.9900   -4.8200 C.2    79  ASP79       0.3668
     87  OD1       13.5070   -0.9340   -5.9770 O.co2  79  ASP79      -0.2456
     88  OD2       12.1830   -1.8700   -4.5260 O.co2  79  ASP79      -0.2456
     89  N         10.6610    1.3860   -3.3600 N.am   80  VAL80      -0.1980
     90  CA         9.2060    1.3870   -3.4740 C.3    80  VAL80       0.1595
     91  C          8.6790    2.7520   -3.9440 C.2    80  VAL80       0.2287
     92  O          7.7950    2.8150   -4.7780 O.2    80  VAL80      -0.2864
     93  CB         8.5480    1.0360   -2.1490 C.3    80  VAL80       0.0276
     94  CG1        7.0180    1.1580   -2.2710 C.3    80  VAL80       0.0022
     95  CG2        8.9120   -0.3850   -1.7060 C.3    80  VAL80       0.0022
     96  N          9.4660    2.9080   -7.6080 N.3    83  PHE83      -0.1227
     97  CA         8.5900    1.9800   -8.3330 C.3    83  PHE83       0.1736
     98  C          7.2260    2.6140   -8.5750 C.2    83  PHE83       0.2595
     99  O          6.6100    2.4040   -9.6130 O.2    83  PHE83      -0.2718
    100  CB         8.4440    0.6900   -7.5310 C.3    83  PHE83       0.0547
    101  CG         7.6020   -0.3700   -8.1980 C.ar   83  PHE83      -0.0202
    102  CD1        8.0250   -0.9930   -9.3630 C.ar   83  PHE83      -0.0042
    103  CD2        6.3930   -0.7740   -7.6340 C.ar   83  PHE83      -0.0042
    104  CE1        7.2650   -1.9850   -9.9570 C.ar   83  PHE83      -0.0003
    105  CE2        5.6310   -1.7720   -8.2280 C.ar   83  PHE83      -0.0003
    106  CZ         6.0680   -2.3710   -9.3980 C.ar   83  PHE83      -0.0000
    107  N          6.7710    3.4010   -7.6050 N.am   84  LEU84      -0.1980
    108  CA         5.4320    3.9760   -7.6520 C.3    84  LEU84       0.1596
    109  C          5.4090    5.3400   -8.3520 C.2    84  LEU84       0.2287
    110  O          4.4910    5.6060   -9.1120 O.2    84  LEU84      -0.2864
    111  CB         4.8190    4.0600   -6.2430 C.3    84  LEU84       0.0297
    112  CG         3.9230    2.9160   -5.7160 C.3    84  LEU84       0.0022
    113  CD1        4.0300    1.6450   -6.4840 C.3    84  LEU84       0.0001
    114  CD2        4.1160    2.6530   -4.2150 C.3    84  LEU84       0.0001
    115  N         13.5550    4.1820  -11.7590 N.3    91  TYR91      -0.1241
    116  CA        13.3810    2.9440  -11.0220 C.3    91  TYR91       0.1605
    117  C         14.3710    1.8700  -11.4410 C.2    91  TYR91       0.2264
    118  O         14.9800    1.2350  -10.5990 O.2    91  TYR91      -0.2867
    119  CB        11.9700    2.4060  -11.2040 C.3    91  TYR91       0.0534
    120  CG        11.8170    1.0350  -10.6510 C.ar   91  TYR91      -0.0201
    121  CD1       12.1030    0.7590   -9.3210 C.ar   91  TYR91      -0.0009
    122  CD2       11.4020   -0.0070  -11.4580 C.ar   91  TYR91      -0.0009
    123  CE1       11.9620   -0.5110   -8.8260 C.ar   91  TYR91       0.0417
    124  CE2       11.2580   -1.2550  -10.9770 C.ar   91  TYR91       0.0417
    125  CZ        11.5310   -1.5150   -9.6660 C.ar   91  TYR91       0.1957
    126  OH        11.3690   -2.7980   -9.2240 O.3    91  TYR91      -0.2866
    127  N          1.3890    2.5380    2.2750 N.3   131  LEU131     -0.1245
    128  CA         2.7470    2.1730    2.6260 C.3   131  LEU131      0.1561
    129  C          3.2130    2.9070    3.8860 C.2   131  LEU131      0.2260
    130  O          3.9400    2.3430    4.6830 O.2   131  LEU131     -0.2867
    131  CB         3.6840    2.3950    1.4490 C.3   131  LEU131      0.0270
    132  CG         3.6410    1.2250    0.4650 C.3   131  LEU131      0.0019
    133  CD1        4.0520    1.6820   -0.9060 C.3   131  LEU131      0.0001
    134  CD2        4.5560    0.0980    0.9560 C.3   131  LEU131      0.0001
@<TRIPOS>BOND
     1   115   116    1
     2    56    55    2
     3   122   124   ar
     4   122   120   ar
     5   117   116    1
     6   117   118    2
     7   119   116    1
     8   119   120    1
     9    55    54    1
    10   124   125   ar
    11    53    54    1
    12   120   121   ar
    13    54    57    1
    14   104   106   ar
    15   104   102   ar
    16   125   126    1
    17   125   123   ar
    18    99    98    2
    19   106   105   ar
    20   102   101   ar
    21   121   123   ar
    22   110   109    2
    23    65    66    1
    24    57    58    1
    25    48    47    2
    26    71    70   ar
    27    98    97    1
    28    98   107   am
    29    58    59   ar
    30    58    60   ar
    31    59    61   ar
    32    69    66    1
    33    69    70    1
    34   109   108    1
    35    97    96    1
    36    97   100    1
    37    66    67    1
    38   105   103   ar
    39   101   103   ar
    40   101   100    1
    41    60    62   ar
    42    61    63   ar
    43    47    46    1
    44    70    72   ar
    45    46    45    1
    46    46    49    1
    47   108   107    1
    48   108   111    1
    49    62    63   ar
    50    63    64    1
    51    67    68    2
    52    51    49    1
    53    49    50    1
    54    50    52    1
    55   113   112    1
    56   111   112    1
    57    87    86   ar
    58   112   114    1
    59    33    32    2
    60    84    83    2
    61    40    39    2
    62    86    88   ar
    63    86    85    1
    64    92    91    2
    65    35    34    1
    66    32    31    1
    67    39    38    1
    68    83    82    1
    69    83    89   am
    70    73    74    1
    71    82    85    1
    72    82    81    1
    73    91    90    1
    74    37    38    1
    75    38    41    1
    76    29    27   ar
    77    29    28   ar
    78    27    25   ar
    79    90    89    1
    80    90    93    1
    81    31    34    1
    82    31    30    1
    83    34    36    1
    84    74    77    1
    85    74    75    1
    86    77    78    1
    87    25    24   ar
    88    28    26   ar
    89    94    93    1
    90    41    42    1
    91    93    95    1
    92    80    79    1
    93    22    21    2
    94    75    76    2
    95    43    44    1
    96    43    42    1
    97    26    24   ar
    98    24    23    1
    99    78    79    1
   100   133   132    1
   101    21    20    1
   102    20    23    1
   103    20    19    1
   104    15    14    2
   105   132   134    1
   106   132   131    1
   107    11     9   ar
   108    11    10   ar
   109    19    14   am
   110    14    13    1
   111    17    16    1
   112   131   128    1
   113     9     7   ar
   114    10     8   ar
   115   127   128    1
   116    13    16    1
   117    13    12    1
   118    16    18    1
   119   128   129    1
   120     7     6   ar
   121     8     6   ar
   122     4     3    2
   123     6     5    1
   124   129   130    2
   125     3     2    1
   126     5     2    1
   127     2     1    1
