@<TRIPOS>MOLECULE
tmp/1pv7B00.pdb
 164 154 0 0 0
SMALL
GASTEIGER

@<TRIPOS>ATOM
      1  N         37.0880   99.1460  166.7500 N.3    20  PHE20      -0.1241
      2  CA        37.4690  100.1120  165.7280 C.3    20  PHE20       0.1605
      3  C         37.8940   99.5100  164.3950 C.2    20  PHE20       0.2264
      4  O         37.6690  100.1230  163.3660 O.2    20  PHE20      -0.2867
      5  CB        38.5640  101.0290  166.2880 C.3    20  PHE20       0.0534
      6  CG        38.1570  101.7440  167.5580 C.ar   20  PHE20      -0.0203
      7  CD1       37.5760  101.0550  168.6110 C.ar   20  PHE20      -0.0042
      8  CD2       38.3490  103.1130  167.6890 C.ar   20  PHE20      -0.0042
      9  CE1       37.2010  101.7220  169.7530 C.ar   20  PHE20      -0.0003
     10  CE2       37.9710  103.7830  168.8450 C.ar   20  PHE20      -0.0003
     11  CZ        37.4000  103.0870  169.8690 C.ar   20  PHE20      -0.0000
     12  N         34.7740   98.7440  162.9530 N.3    23  MET23      -0.1245
     13  CA        34.1330  100.0180  162.7150 C.3    23  MET23       0.1570
     14  C         34.9140  100.7020  161.6240 C.2    23  MET23       0.2261
     15  O         34.3510  101.0990  160.5930 O.2    23  MET23      -0.2867
     16  CB        34.1290  100.9100  163.9270 C.3    23  MET23       0.0387
     17  CG        33.3950  102.1910  163.6150 C.3    23  MET23       0.0595
     18  SD        32.6240  103.0170  165.0180 S.3    23  MET23      -0.1393
     19  CE        34.0270  103.8780  165.7570 C.3    23  MET23       0.0692
     20  N         32.5360  102.0760  158.5290 N.3    27  PHE27      -0.1241
     21  CA        32.2440  103.4670  158.1780 C.3    27  PHE27       0.1605
     22  C         32.7090  103.9540  156.7940 C.2    27  PHE27       0.2264
     23  O         31.8910  104.0870  155.8660 O.2    27  PHE27      -0.2867
     24  CB        32.7500  104.4110  159.2560 C.3    27  PHE27       0.0534
     25  CG        32.0980  105.7460  159.2070 C.ar   27  PHE27      -0.0203
     26  CD1       32.5160  106.7150  158.2880 C.ar   27  PHE27      -0.0042
     27  CD2       31.0070  106.0150  160.0070 C.ar   27  PHE27      -0.0042
     28  CE1       31.8350  107.9440  158.1670 C.ar   27  PHE27      -0.0003
     29  CE2       30.3240  107.2250  159.9040 C.ar   27  PHE27      -0.0003
     30  CZ        30.7320  108.1970  158.9810 C.ar   27  PHE27      -0.0000
     31  N         26.9880   98.9560  164.9680 N.3   118  PHE118     -0.1241
     32  CA        28.0600   99.9420  164.9300 C.3   118  PHE118      0.1605
     33  C         27.7210  101.3970  165.3150 C.2   118  PHE118      0.2264
     34  O         28.5600  102.3010  165.2110 O.2   118  PHE118     -0.2867
     35  CB        28.7490   99.8550  163.5830 C.3   118  PHE118      0.0534
     36  CG        29.8160   98.8070  163.5490 C.ar  118  PHE118     -0.0203
     37  CD1       30.6700   98.6550  164.6360 C.ar  118  PHE118     -0.0042
     38  CD2       29.9570   97.9710  162.4590 C.ar  118  PHE118     -0.0042
     39  CE1       31.6510   97.7010  164.6380 C.ar  118  PHE118     -0.0003
     40  CE2       30.9480   97.0000  162.4500 C.ar  118  PHE118     -0.0003
     41  CZ        31.7950   96.8630  163.5490 C.ar  118  PHE118     -0.0000
     42  N         28.6600  101.0320  169.8090 N.3   122  ALA122     -0.1245
     43  CA        29.7540  101.9060  170.1990 C.3   122  ALA122      0.1562
     44  C         29.5000  102.3660  171.6380 C.2   122  ALA122      0.2260
     45  O         30.2540  102.0170  172.5360 O.2   122  ALA122     -0.2867
     46  CB        29.8340  103.0860  169.2560 C.3   122  ALA122      0.0290
     47  N         40.1890  103.7260  175.8880 N.3   144  ARG144     -0.1245
     48  CA        39.7780  104.2860  174.6070 C.3   144  ARG144      0.1563
     49  C         41.0390  104.6850  173.8450 C.2   144  ARG144      0.2260
     50  O         41.1300  104.4750  172.6340 O.2   144  ARG144     -0.2867
     51  CB        38.8480  105.5030  174.8130 C.3   144  ARG144      0.0307
     52  CG        38.8270  106.5410  173.6630 C.3   144  ARG144      0.0489
     53  CD        37.9090  106.1930  172.4740 C.3   144  ARG144      0.2205
     54  NE        38.1710  107.0970  171.3410 N.pl3 144  ARG144     -0.0865
     55  CZ        37.5840  107.0270  170.1410 C.cat 144  ARG144      0.5346
     56  NH1       36.6790  106.0940  169.8890 N.pl3 144  ARG144      0.1354
     57  NH2       37.9090  107.8790  169.1700 N.pl3 144  ARG144      0.1354
     58  N         41.5630  101.8340  165.0980 N.3   151  TRP151     -0.1241
     59  CA        40.8420  102.7660  164.2130 C.3   151  TRP151      0.1605
     60  C         41.8740  103.3360  163.2620 C.2   151  TRP151      0.2264
     61  O         41.6870  103.3530  162.0480 O.2   151  TRP151     -0.2867
     62  CB        40.2190  103.9190  165.0360 C.3   151  TRP151      0.0550
     63  CG        39.4790  105.0490  164.2430 C.ar  151  TRP151      0.0003
     64  CD1       39.9060  106.3470  164.0440 C.ar  151  TRP151      0.0946
     65  CD2       38.2090  104.9470  163.5640 C.ar  151  TRP151      0.0152
     66  NE1       38.9840  107.0500  163.2840 N.ar  151  TRP151     -0.2442
     67  CE2       37.9340  106.2220  162.9810 C.ar  151  TRP151      0.0810
     68  CE3       37.2710  103.9170  163.3950 C.ar  151  TRP151      0.0012
     69  CZ2       36.7720  106.4720  162.2360 C.ar  151  TRP151      0.0191
     70  CZ3       36.1260  104.1680  162.6610 C.ar  151  TRP151      0.0001
     71  CH2       35.8840  105.4380  162.0930 C.ar  151  TRP151      0.0015
     72  N         24.3680  119.7630  163.2720 N.3   233  SER233     -0.1217
     73  CA        24.8950  118.3970  163.1630 C.3   233  SER233      0.1889
     74  C         24.1920  117.7030  161.9880 C.2   233  SER233      0.2288
     75  O         24.8310  117.0610  161.1510 O.2   233  SER233     -0.2866
     76  CB        24.6160  117.5790  164.4140 C.3   233  SER233      0.2089
     77  OG        25.1490  118.1810  165.5580 O.3   233  SER233     -0.2183
     78  N         26.5340  116.4050  159.4830 N.3   237  ASP237     -0.1239
     79  CA        26.6090  114.9660  159.4150 C.3   237  ASP237      0.1674
     80  C         26.1710  114.4700  158.0430 C.2   237  ASP237      0.2266
     81  O         26.9100  113.7220  157.3960 O.2   237  ASP237     -0.2867
     82  CB        25.7840  114.3260  160.5260 C.3   237  ASP237      0.1410
     83  CG        26.4470  114.4810  161.8850 C.2   237  ASP237      0.3668
     84  OD1       27.2380  115.4480  162.0410 O.co2 237  ASP237     -0.2456
     85  OD2       26.1820  113.6650  162.8020 O.co2 237  ASP237     -0.2456
     86  N         29.1740  114.9150  155.7050 N.3   240  ASP240     -0.1239
     87  CA        30.2440  113.9340  155.9120 C.3   240  ASP240      0.1674
     88  C         29.8470  112.5050  155.6200 C.2   240  ASP240      0.2266
     89  O         30.6940  111.6550  155.3830 O.2   240  ASP240     -0.2867
     90  CB        30.7660  113.9940  157.3470 C.3   240  ASP240      0.1410
     91  CG        31.7600  112.8770  157.6590 C.2   240  ASP240      0.3668
     92  OD1       32.8040  112.7880  156.9810 O.co2 240  ASP240     -0.2456
     93  OD2       31.4990  112.0830  158.5870 O.co2 240  ASP240     -0.2456
     94  N         42.9290  111.1760  163.5610 N.3   269  GLU269     -0.1245
     95  CA        42.9260  110.9710  165.0010 C.3   269  GLU269      0.1567
     96  C         44.1840  111.4700  165.6970 C.2   269  GLU269      0.2260
     97  O         44.1310  111.8190  166.8680 O.2   269  GLU269     -0.2867
     98  CB        42.6680  109.4950  165.3390 C.3   269  GLU269      0.0388
     99  CG        41.3660  108.9160  164.7430 C.3   269  GLU269      0.1160
    100  CD        40.1040  109.6980  165.1230 C.2   269  GLU269      0.3649
    101  OE1       39.7910  109.7660  166.3390 O.co2 269  GLU269     -0.2457
    102  OE2       39.4350  110.2440  164.2020 O.co2 269  GLU269     -0.2457
    103  N         43.3450  114.7120  166.3090 N.3   272  ASN272     -0.1240
    104  CA        42.2650  114.6530  167.3160 C.3   272  ASN272      0.1653
    105  C         42.8920  114.8060  168.7180 C.2   272  ASN272      0.2266
    106  O         42.4760  115.6490  169.5180 O.2   272  ASN272     -0.2867
    107  CB        41.5490  113.2830  167.1390 C.3   272  ASN272      0.1155
    108  CG        40.1730  113.1990  167.7970 C.2   272  ASN272      0.2627
    109  OD1       39.2380  113.9490  167.4790 O.2   272  ASN272     -0.2716
    110  ND2       40.0560  112.2800  168.7420 N.am  272  ASN272     -0.0877
    111  N         37.8190  118.2140  159.4590 N.3   322  HIS322     -0.1241
    112  CA        36.9040  117.3430  160.1840 C.3   322  HIS322      0.1621
    113  C         37.4030  117.2780  161.6100 C.2   322  HIS322      0.2264
    114  O         36.6670  117.5320  162.5640 O.2   322  HIS322     -0.2867
    115  CB        36.9280  115.9170  159.6400 C.3   322  HIS322      0.0745
    116  CG        35.9990  114.9760  160.3570 C.ar  322  HIS322      0.0817
    117  ND1       34.6440  115.2030  160.4430 N.ar  322  HIS322     -0.2268
    118  CD2       36.2270  113.8020  160.9920 C.ar  322  HIS322      0.1154
    119  CE1       34.0740  114.2070  161.1010 C.ar  322  HIS322      0.1986
    120  NE2       35.0110  113.3430  161.4460 N.ar  322  HIS322     -0.2212
    121  N         35.8450  118.0730  165.5430 N.3   326  VAL326     -0.1245
    122  CA        35.4620  117.0190  166.4770 C.3   326  VAL326      0.1561
    123  C         35.5730  117.4920  167.9180 C.2   326  VAL326      0.2260
    124  O         34.5800  117.8480  168.5560 O.2   326  VAL326     -0.2867
    125  CB        36.3350  115.7640  166.3190 C.3   326  VAL326      0.0252
    126  CG1       35.8370  114.6640  167.2270 C.3   326  VAL326      0.0019
    127  CG2       36.3440  115.3030  164.9110 C.3   326  VAL326      0.0019
    128  N         32.3320  117.9600  170.5530 N.3   330  LEU330     -0.1245
    129  CA        32.1580  117.0190  171.6540 C.3   330  LEU330      0.1561
    130  C         32.2400  117.7920  172.9760 C.2   330  LEU330      0.2260
    131  O         31.2790  117.8630  173.7490 O.2   330  LEU330     -0.2867
    132  CB        33.2540  115.9370  171.6100 C.3   330  LEU330      0.0270
    133  CG        33.1310  114.7950  172.6310 C.3   330  LEU330      0.0019
    134  CD1       32.0740  113.7790  172.1640 C.3   330  LEU330      0.0001
    135  CD2       34.4780  114.1160  172.8040 C.3   330  LEU330      0.0001
    136  N         19.2570  114.8150  171.4400 N.3   354  PHE354     -0.1241
    137  CA        20.1460  114.1020  170.5010 C.3   354  PHE354      0.1605
    138  C         19.7290  112.7230  169.9920 C.2   354  PHE354      0.2264
    139  O         20.3050  112.2400  169.0370 O.2   354  PHE354     -0.2867
    140  CB        21.5390  113.9310  171.1110 C.3   354  PHE354      0.0534
    141  CG        22.3540  115.2140  171.2160 C.ar  354  PHE354     -0.0203
    142  CD1       21.8500  116.3610  171.8380 C.ar  354  PHE354     -0.0042
    143  CD2       23.6680  115.2450  170.7490 C.ar  354  PHE354     -0.0042
    144  CE1       22.6460  117.5210  171.9950 C.ar  354  PHE354     -0.0003
    145  CE2       24.4720  116.4030  170.9010 C.ar  354  PHE354     -0.0003
    146  CZ        23.9470  117.5400  171.5300 C.ar  354  PHE354     -0.0000
    147  N         17.7470  114.4740  166.8430 N.3   358  LYS358     -0.1231
    148  CA        18.7830  114.6510  165.8720 C.3   358  LYS358      0.1693
    149  C         18.4520  113.5850  164.8800 C.2   358  LYS358      0.2591
    150  O         17.8960  113.8530  163.8330 O.2   358  LYS358     -0.2718
    151  CB        20.1350  114.3920  166.5050 C.3   358  LYS358      0.0285
    152  CG        21.2790  114.3390  165.5350 C.3   358  LYS358      0.0035
    153  CD        22.5390  113.9840  166.2910 C.3   358  LYS358      0.0206
    154  CE        23.6730  113.6270  165.3600 C.3   358  LYS358      0.1093
    155  NZ        24.8170  113.0890  166.1370 N.3   358  LYS358     -0.1314
    156  N         18.7600  112.3580  165.2460 N.am  359  GLN359     -0.1979
    157  CA        18.5090  111.2390  164.3830 C.3   359  GLN359      0.1601
    158  C         17.2730  111.4500  163.5270 C.2   359  GLN359      0.2287
    159  O         17.2640  111.0870  162.3570 O.2   359  GLN359     -0.2864
    160  CB        18.3890  109.9810  165.2260 C.3   359  GLN359      0.0394
    161  CG        19.6030  109.7330  166.1310 C.3   359  GLN359      0.0908
    162  CD        20.9210  109.6900  165.3710 C.2   359  GLN359      0.2608
    163  OE1       20.9350  109.4700  164.1660 O.2   359  GLN359     -0.2717
    164  NE2       22.0330  109.8800  166.0770 N.am  359  GLN359     -0.0878
@<TRIPOS>BOND
     1    89    88    2
     2    88    87    1
     3    86    87    1
     4    23    22    2
     5    87    90    1
     6    22    21    1
     7    92    91   ar
     8    90    91    1
     9    81    80    2
    10    91    93   ar
    11    80    79    1
    12    28    26   ar
    13    28    30   ar
    14    21    20    1
    15    21    24    1
    16    26    25   ar
    17    30    29   ar
    18    25    24    1
    19    25    27   ar
    20    79    78    1
    21    79    82    1
    22   111   112    1
    23   115   112    1
    24   115   116    1
    25    29    27   ar
    26   112   113    1
    27   116   117   ar
    28   116   118   ar
    29   117   119   ar
    30    82    83    1
    31    15    14    2
    32   118   120   ar
    33   119   120   ar
    34    75    74    2
    35   113   114    2
    36    14    13    1
    37    83    84   ar
    38    83    85   ar
    39    74    73    1
    40    61    60    2
    41    71    69   ar
    42    71    70   ar
    43    69    67   ar
    44   159   158    2
    45    40    38   ar
    46    40    41   ar
    47    38    36   ar
    48    70    68   ar
    49    13    12    1
    50    13    16    1
    51    67    66   ar
    52    67    65   ar
    53    73    72    1
    54    73    76    1
    55    60    59    1
    56    66    64   ar
    57     4     3    2
    58    68    65   ar
    59   158   157    1
    60    36    35    1
    61    36    37   ar
    62    41    39   ar
    63    94    95    1
    64    65    63   ar
    65    35    32    1
    66    17    16    1
    67    17    18    1
    68   150   149    2
    69    64    63   ar
    70   163   162    2
    71   102   100   ar
    72    59    62    1
    73    59    58    1
    74    63    62    1
    75   157   160    1
    76   157   156    1
    77     3     2    1
    78    76    77    1
    79    37    39   ar
    80    99   100    1
    81    99    98    1
    82   149   156   am
    83   149   148    1
    84   127   125    1
    85    32    31    1
    86    32    33    1
    87    95    98    1
    88    95    96    1
    89    18    19    1
    90   100   101   ar
    91    34    33    2
    92   160   161    1
    93   154   155    1
    94   154   153    1
    95   162   164   am
    96   162   161    1
    97   152   153    1
    98   152   151    1
    99   121   122    1
   100    96    97    2
   101     2     5    1
   102     2     1    1
   103   148   151    1
   104   148   147    1
   105     5     6    1
   106   103   104    1
   107   125   122    1
   108   125   126    1
   109   122   123    1
   110   107   104    1
   111   107   108    1
   112   104   105    1
   113   109   108    2
   114     6     8   ar
   115     6     7   ar
   116     8    10   ar
   117   108   110   am
   118   123   124    2
   119     7     9   ar
   120   105   106    2
   121    10    11   ar
   122   139   138    2
   123    57    55    1
   124    46    43    1
   125     9    11   ar
   126    42    43    1
   127    56    55    1
   128   138   137    1
   129    55    54    2
   130    43    44    1
   131   137   140    1
   132   137   136    1
   133   128   129    1
   134   143   145   ar
   135   143   141   ar
   136   145   146   ar
   137   140   141    1
   138   141   142   ar
   139    54    53    1
   140   146   144   ar
   141   132   129    1
   142   132   133    1
   143    44    45    2
   144   129   130    1
   145   142   144   ar
   146   134   133    1
   147    53    52    1
   148   133   135    1
   149    50    49    2
   150   130   131    2
   151    52    51    1
   152    49    48    1
   153    48    51    1
   154    48    47    1
