@<TRIPOS>MOLECULE
tmp/1pvfB00.pdb
 127 119 0 0 0
SMALL
GASTEIGER

@<TRIPOS>ATOM
      1  N         46.6280   10.4430   -0.0360 N.3     1  GLU1       -0.1245
      2  CA        46.8390   10.9600    1.3140 C.3     1  GLU1        0.1567
      3  C         47.3800    9.8770    2.2370 C.2     1  GLU1        0.2260
      4  O         47.0150    8.7010    2.2030 O.2     1  GLU1       -0.2867
      5  CB        45.5360   11.5330    1.8700 C.3     1  GLU1        0.0388
      6  CG        45.6650   12.9130    2.4930 C.3     1  GLU1        0.1160
      7  CD        44.4940   13.2690    3.3920 C.2     1  GLU1        0.3649
      8  OE1       43.3480   12.9140    3.0410 O.co2   1  GLU1       -0.2457
      9  OE2       44.7340   13.9010    4.4460 O.co2   1  GLU1       -0.2457
     10  N         46.3660    6.4810    3.7180 N.3    18  LYS18      -0.1245
     11  CA        45.4340    6.7950    4.7910 C.3    18  LYS18       0.1561
     12  C         44.2820    5.8050    4.9040 C.2    18  LYS18       0.2260
     13  O         44.0500    5.2640    5.9930 O.2    18  LYS18      -0.2867
     14  CB        44.8530    8.2120    4.6430 C.3    18  LYS18       0.0271
     15  CG        43.9600    8.5480    5.8360 C.3    18  LYS18       0.0035
     16  CD        43.7540   10.0460    5.9760 C.3    18  LYS18       0.0206
     17  CE        42.3810   10.4840    5.4980 C.3    18  LYS18       0.1093
     18  NZ        42.3630   11.9240    5.1130 N.3    18  LYS18      -0.1314
     19  N         30.2950   14.1380   11.9650 N.3    48  ARG48      -0.1245
     20  CA        31.0320   13.4550   10.8970 C.3    48  ARG48       0.1563
     21  C         30.0930   12.9590    9.8200 C.2    48  ARG48       0.2260
     22  O         29.0070   12.4720   10.1520 O.2    48  ARG48      -0.2867
     23  CB        31.8640   12.3060   11.5150 C.3    48  ARG48       0.0307
     24  CG        32.9750   12.9120   12.3780 C.3    48  ARG48       0.0489
     25  CD        33.7440   11.8720   13.1610 C.3    48  ARG48       0.2205
     26  NE        34.4410   10.9050   12.3230 N.pl3  48  ARG48      -0.0865
     27  CZ        35.6570   11.1060   11.8120 C.cat  48  ARG48       0.5346
     28  NH1       36.3120   12.2390   12.0430 N.pl3  48  ARG48       0.1354
     29  NH2       36.2180   10.1680   11.0660 N.pl3  48  ARG48       0.1354
     30  N         32.3670    8.8540    6.3300 N.3    52  LYS52      -0.1245
     31  CA        33.6630    8.7440    6.9990 C.3    52  LYS52       0.1561
     32  C         33.8730    7.2860    7.3740 C.2    52  LYS52       0.2260
     33  O         32.9140    6.6210    7.7890 O.2    52  LYS52      -0.2867
     34  CB        33.7260    9.6600    8.2120 C.3    52  LYS52       0.0271
     35  CG        33.6500   11.1530    7.9550 C.3    52  LYS52       0.0035
     36  CD        34.7810   11.6520    7.0680 C.3    52  LYS52       0.0206
     37  CE        36.1450   11.4130    7.6940 C.3    52  LYS52       0.1093
     38  NZ        37.2490   11.7660    6.7420 N.3    52  LYS52      -0.1314
     39  N         35.6460    6.0150    9.8220 N.3    54  ALA54      -0.1245
     40  CA        35.6080    5.8020   11.2700 C.3    54  ALA54       0.1562
     41  C         34.6690    6.8210   11.9160 C.2    54  ALA54       0.2260
     42  O         34.6850    7.9970   11.5510 O.2    54  ALA54      -0.2867
     43  CB        37.0010    5.9000   11.8600 C.3    54  ALA54       0.0290
     44  N         39.3290   17.1830   12.9830 N.3    64  CYS64      -0.1221
     45  CA        40.4590   16.3000   13.2730 C.3    64  CYS64       0.1808
     46  C         41.1150   15.9300   11.9530 C.2    64  CYS64       0.2602
     47  O         40.4540   15.9400   10.9170 O.2    64  CYS64      -0.2717
     48  CB        40.0400   15.0290   14.0130 C.3    64  CYS64       0.0970
     49  SG        39.4760   15.3360   15.6990 S.3    64  CYS64      -0.0800
     50  N         42.3990   15.5890   11.9670 N.am   65  GLY65      -0.1942
     51  CA        42.9670   15.1880   10.6750 C.3    65  GLY65       0.2014
     52  C         44.3550   14.5860   10.9000 C.2    65  GLY65       0.2638
     53  O         44.7220   14.2670   12.0350 O.2    65  GLY65      -0.2714
     54  N         45.0780   14.4550    9.8070 N.am   66  HIS66      -0.1973
     55  CA        46.3430   13.7420    9.7900 C.3    66  HIS66       0.1656
     56  C         47.3690   14.5810    9.0560 C.2    66  HIS66       0.2291
     57  O         47.2100   14.7460    7.8490 O.2    66  HIS66      -0.2864
     58  CB        46.2420   12.3930    9.0620 C.3    66  HIS66       0.0771
     59  CG        45.2660   11.4430    9.6860 C.ar   66  HIS66       0.0820
     60  ND1       43.9060   11.4650    9.4080 N.ar   66  HIS66      -0.2267
     61  CD2       45.4350   10.4470   10.5860 C.ar   66  HIS66       0.1154
     62  CE1       43.3020   10.5200   10.1030 C.ar   66  HIS66       0.1986
     63  NE2       44.2010    9.8800   10.8320 N.ar   66  HIS66      -0.2212
     64  N         43.0430   21.3420    7.1100 N.3    80  ARG80      -0.1245
     65  CA        41.7990   20.5710    7.2720 C.3    80  ARG80       0.1563
     66  C         40.6590   21.5290    7.5850 C.2    80  ARG80       0.2260
     67  O         39.5100   21.3160    7.1970 O.2    80  ARG80      -0.2867
     68  CB        41.8810   19.5500    8.3870 C.3    80  ARG80       0.0307
     69  CG        42.4540   18.1940    8.1180 C.3    80  ARG80       0.0489
     70  CD        42.2340   17.7010    6.7080 C.3    80  ARG80       0.2205
     71  NE        41.0970   16.7950    6.6220 N.pl3  80  ARG80      -0.0865
     72  CZ        40.9110   15.9620    5.6060 C.cat  80  ARG80       0.5346
     73  NH1       41.7930   15.9430    4.6140 N.pl3  80  ARG80       0.1354
     74  NH2       39.8580   15.1590    5.5810 N.pl3  80  ARG80       0.1354
     75  N         37.6250   20.8060    5.3260 N.3    84  GLU84      -0.1245
     76  CA        36.3830   20.2560    5.8680 C.3    84  GLU84       0.1567
     77  C         35.3230   21.3230    6.0890 C.2    84  GLU84       0.2260
     78  O         34.1220   21.0260    5.9940 O.2    84  GLU84      -0.2867
     79  CB        36.6730   19.5390    7.1920 C.3    84  GLU84       0.0388
     80  CG        37.6230   18.3600    7.0680 C.3    84  GLU84       0.1160
     81  CD        37.7560   17.5540    8.3470 C.2    84  GLU84       0.3649
     82  OE1       36.9700   17.7910    9.2980 O.co2  84  GLU84      -0.2457
     83  OE2       38.6460   16.6760    8.4240 O.co2  84  GLU84      -0.2457
     84  N         45.4150    8.4890   21.8830 N.3   101  TYR101     -0.1241
     85  CA        44.3330    7.5650   22.2080 C.3   101  TYR101      0.1605
     86  C         44.1720    6.4740   21.1630 C.2   101  TYR101      0.2264
     87  O         44.4890    6.5770   19.9810 O.2   101  TYR101     -0.2867
     88  CB        42.9900    8.3050   22.3440 C.3   101  TYR101      0.0534
     89  CG        42.4400    8.6250   20.9690 C.ar  101  TYR101     -0.0201
     90  CD1       41.3410    7.9910   20.4130 C.ar  101  TYR101     -0.0009
     91  CD2       43.0780    9.5980   20.2140 C.ar  101  TYR101     -0.0009
     92  CE1       40.8870    8.3220   19.1440 C.ar  101  TYR101      0.0417
     93  CE2       42.6320    9.9420   18.9550 C.ar  101  TYR101      0.0417
     94  CZ        41.5330    9.3010   18.4210 C.ar  101  TYR101      0.1957
     95  OH        41.1140    9.6660   17.1590 O.3   101  TYR101     -0.2866
     96  N         41.1060    3.5810   15.6810 N.3   111  GLU111     -0.1245
     97  CA        42.0170    4.7150   15.5510 C.3   111  GLU111      0.1567
     98  C         43.1190    4.4990   16.5950 C.2   111  GLU111      0.2260
     99  O         42.7800    4.0800   17.7000 O.2   111  GLU111     -0.2867
    100  CB        41.4010    6.0810   15.7940 C.3   111  GLU111      0.0388
    101  CG        40.9550    6.7850   14.5280 C.3   111  GLU111      0.1160
    102  CD        42.0720    7.2830   13.6460 C.2   111  GLU111      0.3649
    103  OE1       41.8000    8.1630   12.8030 O.co2 111  GLU111     -0.2457
    104  OE2       43.2280    6.8200   13.7520 O.co2 111  GLU111     -0.2457
    105  N         46.3620    6.7610   17.7250 N.3   113  GLU113     -0.1245
    106  CA        46.9850    8.0130   17.3660 C.3   113  GLU113      0.1567
    107  C         47.6640    8.7320   18.5240 C.2   113  GLU113      0.2260
    108  O         47.1850    8.6990   19.6530 O.2   113  GLU113     -0.2867
    109  CB        45.9440    9.0040   16.8050 C.3   113  GLU113      0.0388
    110  CG        45.0750    8.4270   15.7130 C.3   113  GLU113      0.1160
    111  CD        44.1310    9.4180   15.0760 C.2   113  GLU113      0.3649
    112  OE1       43.4370   10.1710   15.7910 O.co2 113  GLU113     -0.2457
    113  OE2       44.0740    9.4110   13.8250 O.co2 113  GLU113     -0.2457
    114  N         36.9580   10.6210   21.5670 N.3   158  TRP158     -0.1241
    115  CA        38.1040   11.5330   21.7410 C.3   158  TRP158      0.1605
    116  C         37.6410   12.9310   22.1440 C.2   158  TRP158      0.2264
    117  O         38.3070   13.6420   22.9090 O.2   158  TRP158     -0.2867
    118  CB        38.9970   11.5940   20.5060 C.3   158  TRP158      0.0550
    119  CG        38.3050   12.1800   19.3190 C.ar  158  TRP158      0.0003
    120  CD1       38.2230   13.4880   18.9440 C.ar  158  TRP158      0.0946
    121  CD2       37.5800   11.4140   18.3450 C.ar  158  TRP158      0.0152
    122  NE1       37.4860   13.5860   17.7820 N.ar  158  TRP158     -0.2442
    123  CE2       37.0840   12.3280   17.4020 C.ar  158  TRP158      0.0810
    124  CE3       37.3270   10.0450   18.2140 C.ar  158  TRP158      0.0012
    125  CZ2       36.3260   11.9110   16.3090 C.ar  158  TRP158      0.0191
    126  CZ3       36.5740    9.6350   17.1300 C.ar  158  TRP158      0.0001
    127  CH2       36.0900   10.5670   16.2040 C.ar  158  TRP158      0.0015
@<TRIPOS>BOND
     1     1     2    1
     2     2     5    1
     3     2     3    1
     4     5     6    1
     5     4     3    2
     6     6     7    1
     7     8     7   ar
     8     7     9   ar
     9    10    11    1
    10    73    72    1
    11    14    11    1
    12    14    15    1
    13    11    12    1
    14    12    13    2
    15    18    17    1
    16    75    76    1
    17    17    16    1
    18    74    72    1
    19    72    71    2
    20    15    16    1
    21    76    77    1
    22    76    79    1
    23    78    77    2
    24    30    31    1
    25    71    70    1
    26    70    69    1
    27    38    37    1
    28    31    32    1
    29    31    34    1
    30    80    79    1
    31    80    81    1
    32    36    37    1
    33    36    35    1
    34    64    65    1
    35    67    66    2
    36    65    66    1
    37    65    68    1
    38    32    33    2
    39    57    56    2
    40    35    34    1
    41    69    68    1
    42    81    83   ar
    43    81    82   ar
    44    56    55    1
    45    58    59    1
    46    58    55    1
    47    60    59   ar
    48    60    62   ar
    49    59    61   ar
    50    55    54    1
    51    54    52   am
    52    21    22    2
    53    21    20    1
    54    39    40    1
    55    62    63   ar
    56    61    63   ar
    57    51    52    1
    58    51    50    1
    59    20    23    1
    60    20    19    1
    61    52    53    2
    62    47    46    2
    63    29    27    1
    64    40    43    1
    65    40    41    1
    66    23    24    1
    67    42    41    2
    68    27    28    1
    69    27    26    2
    70    46    50   am
    71    46    45    1
    72    26    25    1
    73    24    25    1
    74   103   102   ar
    75    44    45    1
    76    45    48    1
    77   102   104   ar
    78   102   101    1
    79   113   111   ar
    80    48    49    1
    81   101   100    1
    82   111   110    1
    83   111   112   ar
    84    97    96    1
    85    97   100    1
    86    97    98    1
    87   110   109    1
    88   127   125   ar
    89   127   126   ar
    90   125   123   ar
    91    98    99    2
    92   109   106    1
    93   126   124   ar
    94    95    94    1
    95   106   105    1
    96   106   107    1
    97   123   122   ar
    98   123   121   ar
    99   122   120   ar
   100   124   121   ar
   101   121   119   ar
   102    94    93   ar
   103    94    92   ar
   104   107   108    2
   105   120   119   ar
   106    93    91   ar
   107    92    90   ar
   108   119   118    1
   109    87    86    2
   110    91    89   ar
   111    90    89   ar
   112   118   115    1
   113    89    88    1
   114    86    85    1
   115   114   115    1
   116   115   116    1
   117    84    85    1
   118   116   117    2
   119    85    88    1
