@<TRIPOS>MOLECULE
tmp/1pvjC00.pdb
 134 129 0 0 0
SMALL
GASTEIGER

@<TRIPOS>ATOM
      1  N         54.0430   56.9800  -13.2330 N.3    70  GLY70      -0.1225
      2  CA        53.1230   55.9290  -13.6090 C.3    70  GLY70       0.1811
      3  C         51.9320   56.4150  -14.3830 C.2    70  GLY70       0.2280
      4  O         51.2700   55.6330  -15.0800 O.2    70  GLY70      -0.2866
      5  N         51.0270   57.9090  -17.3170 N.3    72  GLU72      -0.1231
      6  CA        51.5410   58.2120  -18.6400 C.3    72  GLU72       0.1699
      7  C         50.8790   59.3590  -19.3640 C.2    72  GLU72       0.2592
      8  O         51.5710   60.2460  -19.8520 O.2    72  GLU72      -0.2718
      9  CB        51.5320   56.9260  -19.4690 C.3    72  GLU72       0.0402
     10  CG        51.8990   57.0520  -20.9320 C.3    72  GLU72       0.1161
     11  CD        53.1430   57.8730  -21.1860 C.2    72  GLU72       0.3649
     12  OE1       54.0490   57.9100  -20.3150 O.co2  72  GLU72      -0.2457
     13  OE2       53.2140   58.4730  -22.2850 O.co2  72  GLU72      -0.2457
     14  N         49.5510   59.3670  -19.4410 N.am   73  ASN73      -0.1974
     15  CA        48.8580   60.4570  -20.1440 C.3    73  ASN73       0.1688
     16  C         49.3550   61.8290  -19.6890 C.2    73  ASN73       0.2292
     17  O         49.4480   62.7600  -20.5200 O.2    73  ASN73      -0.2864
     18  CB        47.3460   60.3690  -19.9190 C.3    73  ASN73       0.1181
     19  CG        46.9410   60.6210  -18.4630 C.2    73  ASN73       0.2629
     20  OD1       47.6630   60.2780  -17.5450 O.2    73  ASN73      -0.2716
     21  ND2       45.7780   61.1920  -18.2590 N.am   73  ASN73      -0.0877
     22  N         41.5400   54.3370  -12.9850 N.3   113  GLN113     -0.1245
     23  CA        41.6180   53.2840  -13.9790 C.3   113  GLN113      0.1566
     24  C         41.7810   51.9490  -13.2880 C.2   113  GLN113      0.2260
     25  O         41.8920   50.9140  -13.9370 O.2   113  GLN113     -0.2867
     26  CB        42.8060   53.4740  -14.8990 C.3   113  GLN113      0.0367
     27  CG        42.8450   54.7430  -15.6840 C.3   113  GLN113      0.0905
     28  CD        43.9690   54.6700  -16.6940 C.2   113  GLN113      0.2608
     29  OE1       44.1850   53.6190  -17.3030 O.2   113  GLN113     -0.2717
     30  NE2       44.6920   55.7830  -16.8810 N.am  113  GLN113     -0.0878
     31  N         43.9510   47.3510  -16.7250 N.3   140  ALA140     -0.1245
     32  CA        43.5640   48.7180  -16.3360 C.3   140  ALA140      0.1562
     33  C         42.4580   49.1420  -17.2630 C.2   140  ALA140      0.2260
     34  O         42.3730   48.6870  -18.4240 O.2   140  ALA140     -0.2867
     35  CB        44.7040   49.6620  -16.4920 C.3   140  ALA140      0.0290
     36  N         42.2360   51.7650  -18.8110 N.3   142  GLY142     -0.1210
     37  CA        42.7460   52.5220  -19.9280 C.3   142  GLY142      0.1956
     38  C         42.2520   53.9330  -19.6960 C.2   142  GLY142      0.2615
     39  O         41.1740   54.0890  -19.1290 O.2   142  GLY142     -0.2717
     40  N         42.9790   54.9620  -20.1070 N.am  143  CYS143     -0.1914
     41  CA        42.6090   56.3570  -19.9000 C.3   143  CYS143      0.2015
     42  C         41.5320   56.9890  -20.7050 C.2   143  CYS143      0.2664
     43  O         40.8910   57.9470  -20.2610 O.2   143  CYS143     -0.2711
     44  CB        43.7280   57.2010  -20.2690 C.2   143  CYS143      0.0465
     45  SG        44.5040   57.2230  -21.6940 S.2   143  CYS143     -0.0529
     46  N         41.4280   56.5410  -21.9390 N.am  144  VAL144     -0.1974
     47  CA        40.4210   57.0610  -22.8340 C.3   144  VAL144      0.1596
     48  C         39.0850   56.4860  -22.3470 C.2   144  VAL144      0.2287
     49  O         38.0130   57.0920  -22.4890 O.2   144  VAL144     -0.2864
     50  CB        40.7720   56.7150  -24.3210 C.3   144  VAL144      0.0276
     51  CG1       42.2470   56.3880  -24.4100 C.3   144  VAL144      0.0022
     52  CG2       39.8970   55.6320  -24.8750 C.3   144  VAL144      0.0022
     53  N         49.9370   40.0770  -23.0040 N.3   175  TYR175     -0.1241
     54  CA        49.2970   39.6260  -21.7940 C.3   175  TYR175      0.1605
     55  C         48.1700   38.6350  -21.9540 C.2   175  TYR175      0.2264
     56  O         47.5990   38.1750  -20.9640 O.2   175  TYR175     -0.2867
     57  CB        48.7990   40.8270  -21.0260 C.3   175  TYR175      0.0534
     58  CG        49.8530   41.8910  -20.8690 C.ar  175  TYR175     -0.0201
     59  CD1       50.0290   42.8840  -21.8260 C.ar  175  TYR175     -0.0009
     60  CD2       50.6860   41.8980  -19.7530 C.ar  175  TYR175     -0.0009
     61  CE1       50.9990   43.8410  -21.6650 C.ar  175  TYR175      0.0417
     62  CE2       51.6640   42.8610  -19.5960 C.ar  175  TYR175      0.0417
     63  CZ        51.8110   43.8180  -20.5500 C.ar  175  TYR175      0.1957
     64  OH        52.8030   44.7400  -20.3880 O.3   175  TYR175     -0.2866
     65  N         43.4210   48.0330  -25.9890 N.3   226  ASP226     -0.1239
     66  CA        44.4990   47.0360  -25.9290 C.3   226  ASP226      0.1674
     67  C         44.8270   46.9380  -24.4310 C.2   226  ASP226      0.2266
     68  O         45.5340   47.7680  -23.8590 O.2   226  ASP226     -0.2867
     69  CB        45.7100   47.5500  -26.6580 C.3   226  ASP226      0.1410
     70  CG        46.6940   46.4770  -26.9410 C.2   226  ASP226      0.3668
     71  OD1       46.2320   45.4360  -27.4300 O.co2 226  ASP226     -0.2456
     72  OD2       47.9030   46.6670  -26.7050 O.co2 226  ASP226     -0.2456
     73  N         48.6400   45.7410  -18.0210 N.3   229  PRO229     -0.2102
     74  CA        48.9050   46.3820  -16.7360 C.3   229  PRO229      0.1504
     75  C         48.4710   47.8050  -16.8870 C.2   229  PRO229      0.2576
     76  O         48.1050   48.4830  -15.9420 O.2   229  PRO229     -0.2718
     77  CB        50.4110   46.2450  -16.6140 C.3   229  PRO229      0.0282
     78  CG        50.6670   44.9520  -17.2980 C.3   229  PRO229      0.0208
     79  CD        49.8500   45.1100  -18.5350 C.3   229  PRO229      0.0893
     80  N         48.5360   48.2490  -18.1260 N.am  230  SER230     -0.1938
     81  CA        48.1030   49.5680  -18.5030 C.3   230  SER230      0.2055
     82  C         47.3140   49.3270  -19.8060 C.2   230  SER230      0.2644
     83  O         47.4940   48.2990  -20.4320 O.2   230  SER230     -0.2714
     84  CB        49.2940   50.4870  -18.6690 C.3   230  SER230      0.2130
     85  OG        49.8920   50.2420  -19.9010 O.3   230  SER230     -0.2179
     86  N         46.4200   50.2200  -20.2070 N.am  231  SER231     -0.1935
     87  CA        45.6050   49.9490  -21.3830 C.3   231  SER231      0.2055
     88  C         45.4640   51.1150  -22.3230 C.2   231  SER231      0.2643
     89  O         45.1290   52.1990  -21.9020 O.2   231  SER231     -0.2714
     90  CB        44.2380   49.4690  -20.9390 C.3   231  SER231      0.2130
     91  OG        44.3640   48.2490  -20.2270 O.3   231  SER231     -0.2179
     92  N         45.7480   50.8870  -23.6090 N.am  232  GLY232     -0.1954
     93  CA        45.6840   51.9820  -24.5660 C.3   232  GLY232      0.1869
     94  C         44.7140   51.7970  -25.7130 C.2   232  GLY232      0.2309
     95  O         44.3320   50.6620  -26.0290 O.2   232  GLY232     -0.2863
     96  N         51.9440   54.1670  -28.5770 N.3   288  VAL288     -0.1231
     97  CA        51.0210   53.3910  -27.8130 C.3   288  VAL288      0.1692
     98  C         49.5760   53.8690  -27.8030 C.2   288  VAL288      0.2593
     99  O         48.7570   53.2490  -27.1170 O.2   288  VAL288     -0.2718
    100  CB        51.5000   53.2950  -26.3900 C.3   288  VAL288      0.0266
    101  CG1       52.7740   52.4770  -26.3490 C.3   288  VAL288      0.0020
    102  CG2       51.7140   54.7000  -25.8280 C.3   288  VAL288      0.0020
    103  N         49.2400   54.9340  -28.5330 N.am  289  GLY289     -0.1942
    104  CA        47.8480   55.3650  -28.5210 C.3   289  GLY289      0.2014
    105  C         47.5010   56.7530  -28.0070 C.2   289  GLY289      0.2639
    106  O         48.3630   57.5900  -27.8180 O.2   289  GLY289     -0.2714
    107  N         46.2260   57.0060  -27.7680 N.am  290  GLY290     -0.1939
    108  CA        45.8410   58.3230  -27.3260 C.3   290  GLY290      0.2014
    109  C         46.0420   58.5380  -25.8530 C.2   290  GLY290      0.2638
    110  O         45.4870   57.8080  -25.0160 O.2   290  GLY290     -0.2714
    111  N         46.8510   59.5430  -25.5370 N.am  291  HIS291     -0.1973
    112  CA        47.1530   59.9470  -24.1600 C.3   291  HIS291      0.1656
    113  C         46.0890   60.9550  -23.7450 C.2   291  HIS291      0.2291
    114  O         46.3650   62.1400  -23.5850 O.2   291  HIS291     -0.2864
    115  CB        48.5090   60.6280  -24.1180 C.3   291  HIS291      0.0771
    116  CG        49.6270   59.7860  -24.6380 C.ar  291  HIS291      0.0820
    117  ND1       50.1300   58.7120  -23.9400 N.ar  291  HIS291     -0.2267
    118  CD2       50.3830   59.9020  -25.7510 C.ar  291  HIS291      0.1154
    119  CE1       51.1580   58.2020  -24.5910 C.ar  291  HIS291      0.1986
    120  NE2       51.3370   58.9040  -25.6960 N.ar  291  HIS291     -0.2212
    121  N         42.6530   59.8150  -12.8400 N.3   310  TRP310     -0.1241
    122  CA        43.5730   59.2660  -11.8080 C.3   310  TRP310      0.1605
    123  C         43.0810   59.6020  -10.3660 C.2   310  TRP310      0.2264
    124  O         43.8410   59.5250   -9.3550 O.2   310  TRP310     -0.2867
    125  CB        44.9750   59.8610  -11.9570 C.3   310  TRP310      0.0550
    126  CG        45.7000   59.4170  -13.1860 C.ar  310  TRP310      0.0003
    127  CD1       46.1890   60.2120  -14.1850 C.ar  310  TRP310      0.0946
    128  CD2       46.0580   58.0750  -13.5340 C.ar  310  TRP310      0.0152
    129  NE1       46.8330   59.4490  -15.1260 N.ar  310  TRP310     -0.2442
    130  CE2       46.7650   58.1330  -14.7460 C.ar  310  TRP310      0.0810
    131  CE3       45.8470   56.8310  -12.9410 C.ar  310  TRP310      0.0012
    132  CZ2       47.2580   56.9980  -15.3660 C.ar  310  TRP310      0.0191
    133  CZ3       46.3340   55.7050  -13.5700 C.ar  310  TRP310      0.0001
    134  CH2       47.0250   55.8030  -14.7570 C.ar  310  TRP310      0.0015
@<TRIPOS>BOND
     1    96    97    1
     2   103   104    1
     3   103    98   am
     4   104   105    1
     5   105   106    2
     6   105   107   am
     7    97    98    1
     8    97   100    1
     9    98    99    2
    10   107   108    1
    11    71    70   ar
    12   108   109    1
    13    70    72   ar
    14    70    69    1
    15    69    66    1
    16   100   101    1
    17   100   102    1
    18    95    94    2
    19    65    66    1
    20    66    67    1
    21   109   111   am
    22   109   110    2
    23   118   120   ar
    24   118   116   ar
    25    94    93    1
    26   120   119   ar
    27   111   112    1
    28    52    50    1
    29   116   115    1
    30   116   117   ar
    31   119   117   ar
    32    93    92    1
    33    67    68    2
    34    51    50    1
    35    50    47    1
    36   112   115    1
    37   112   113    1
    38   113   114    2
    39    92    88   am
    40    53    54    1
    41    47    48    1
    42    47    46    1
    43    49    48    2
    44    88    89    2
    45    88    87    1
    46    13    11   ar
    47    55    54    1
    48    55    56    2
    49    46    42   am
    50    59    61   ar
    51    59    58   ar
    52    54    57    1
    53    45    44    2
    54    61    63   ar
    55    87    90    1
    56    87    86    1
    57    11    10    1
    58    11    12   ar
    59    57    58    1
    60    90    91    1
    61    10     9    1
    62    58    60   ar
    63    42    43    2
    64    42    41    1
    65    63    64    1
    66    63    62   ar
    67    17    16    2
    68    83    82    2
    69    44    41    1
    70    86    82   am
    71    15    18    1
    72    15    16    1
    73    15    14    1
    74    40    41    1
    75    40    38   am
    76    37    38    1
    77    37    36    1
    78    18    19    1
    79    85    84    1
    80     8     7    2
    81    82    81    1
    82    60    62   ar
    83    38    39    2
    84     9     6    1
    85    14     7   am
    86     7     6    1
    87    84    81    1
    88     6     5    1
    89    79    73    1
    90    79    78    1
    91    81    80    1
    92    19    21   am
    93    19    20    2
    94    34    33    2
    95    80    75   am
    96    73    74    1
    97    29    28    2
    98    78    77    1
    99    33    32    1
   100    75    74    1
   101    75    76    2
   102    30    28   am
   103    74    77    1
   104    31    32    1
   105    28    27    1
   106    35    32    1
   107    27    26    1
   108   132   134   ar
   109   132   130   ar
   110   129   130   ar
   111   129   127   ar
   112     4     3    2
   113    26    23    1
   114   134   133   ar
   115   130   128   ar
   116     3     2    1
   117   127   126   ar
   118    23    24    1
   119    23    22    1
   120    25    24    2
   121     2     1    1
   122   133   131   ar
   123   128   126   ar
   124   128   131   ar
   125   126   125    1
   126   121   122    1
   127   125   122    1
   128   122   123    1
   129   123   124    2
