@<TRIPOS>MOLECULE
tmp/1pvlA01.pdb
 87 87 0 0 0
SMALL
GASTEIGER

@<TRIPOS>ATOM
      1  N         56.3820   73.3070    4.0000 N.3    71  THR71      -0.1203
      2  CA        55.6850   74.4440    3.4020 C.3    71  THR71       0.1994
      3  C         55.3200   74.0310    1.9660 C.2    71  THR71       0.2617
      4  O         55.9740   73.1540    1.3500 O.2    71  THR71      -0.2717
      5  CB        56.5430   75.7190    3.3020 C.3    71  THR71       0.1784
      6  OG1       57.6920   75.4130    2.4870 O.3    71  THR71      -0.2211
      7  CG2       56.9970   76.2090    4.6550 C.3    71  THR71       0.0376
      8  N         54.3000   74.6430    1.4230 N.am   72  ILE72      -0.1979
      9  CA        53.8050   74.4290    0.0750 C.3    72  ILE72       0.1595
     10  C         52.9890   73.1490   -0.0170 C.2    72  ILE72       0.2287
     11  O         51.8050   73.1630   -0.3660 O.2    72  ILE72      -0.2864
     12  CB        54.8680   74.5110   -1.0130 C.3    72  ILE72       0.0276
     13  CG1       55.6510   75.8270   -0.9360 C.3    72  ILE72       0.0022
     14  CG2       54.1550   74.4960   -2.3890 C.3    72  ILE72       0.0022
     15  CD1       56.7740   75.9550   -1.9280 C.3    72  ILE72       0.0001
     16  N         41.3650   77.9020    3.2550 N.3   195  GLN195     -0.1231
     17  CA        42.0970   79.1620    3.1430 C.3   195  GLN195      0.1698
     18  C         43.0820   79.3540    4.2700 C.2   195  GLN195      0.2593
     19  O         43.5470   80.4800    4.5190 O.2   195  GLN195     -0.2718
     20  CB        41.1320   80.3540    3.0300 C.3   195  GLN195      0.0381
     21  CG        40.1650   80.2890    1.8560 C.3   195  GLN195      0.0905
     22  CD        40.8460   80.0430    0.5230 C.2   195  GLN195      0.2608
     23  OE1       40.3200   79.2840   -0.3130 O.2   195  GLN195     -0.2717
     24  NE2       42.0100   80.6290    0.3220 N.am  195  GLN195     -0.0878
     25  N         43.4490   78.2760    4.9610 N.am  196  SER196     -0.1938
     26  CA        44.3880   78.3870    6.0620 C.3   196  SER196      0.2055
     27  C         45.6650   79.1540    5.7520 C.2   196  SER196      0.2643
     28  O         46.3040   79.0670    4.6970 O.2   196  SER196     -0.2714
     29  CB        44.7690   76.9940    6.6040 C.3   196  SER196      0.2130
     30  OG        45.7600   77.1370    7.6000 O.3   196  SER196     -0.2179
     31  N         46.0910   79.9130    6.7510 N.am  197  ASN197     -0.1957
     32  CA        47.2950   80.7330    6.7120 C.3   197  ASN197      0.1819
     33  C         48.5100   80.0100    7.2650 C.2   197  ASN197      0.2621
     34  O         49.6300   80.5370    7.2830 O.2   197  ASN197     -0.2715
     35  CB        46.9680   81.9060    7.6740 C.3   197  ASN197      0.1195
     36  CG        47.8890   83.0800    7.5610 C.2   197  ASN197      0.2630
     37  OD1       48.2690   83.7110    8.5620 O.2   197  ASN197     -0.2716
     38  ND2       48.2490   83.3970    6.3150 N.am  197  ASN197     -0.0877
     39  N         48.3720   78.7810    7.7440 N.am  198  LEU198     -0.1963
     40  CA        49.5190   78.0710    8.3240 C.3   198  LEU198      0.1728
     41  C         50.3670   77.3470    7.3080 C.2   198  LEU198      0.2616
     42  O         50.0040   77.3330    6.1280 O.2   198  LEU198     -0.2715
     43  CB        48.9470   77.0500    9.3450 C.3   198  LEU198      0.0311
     44  CG        48.1870   77.7230   10.5040 C.3   198  LEU198      0.0022
     45  CD1       47.4670   76.7090   11.3770 C.3   198  LEU198      0.0001
     46  CD2       49.1680   78.5260   11.3550 C.3   198  LEU198      0.0001
     47  N         51.4730   76.7780    7.7400 N.am  199  ASN199     -0.1958
     48  CA        52.3310   76.0010    6.8430 C.3   199  ASN199      0.1819
     49  C         51.5670   74.7520    6.3730 C.2   199  ASN199      0.2621
     50  O         50.6410   74.3020    7.0680 O.2   199  ASN199     -0.2715
     51  CB        53.5450   75.4970    7.6310 C.3   199  ASN199      0.1195
     52  CG        54.6470   76.4780    7.9280 C.2   199  ASN199      0.2630
     53  OD1       54.8200   77.5220    7.2810 O.2   199  ASN199     -0.2716
     54  ND2       55.4720   76.1310    8.9240 N.am  199  ASN199     -0.0877
     55  N         51.9460   74.1310    5.2660 N.am  200  ALA200     -0.1977
     56  CA        51.2750   72.9220    4.7790 C.3   200  ALA200      0.1597
     57  C         51.3010   71.8160    5.8290 C.2   200  ALA200      0.2287
     58  O         50.3120   71.1360    6.1010 O.2   200  ALA200     -0.2864
     59  CB        51.9440   72.4050    3.5100 C.3   200  ALA200      0.0319
     60  N         49.2320   73.9930   -1.5750 N.3   253  TRP253     -0.1241
     61  CA        48.7500   75.3880   -1.7120 C.3   253  TRP253      0.1605
     62  C         48.9760   75.7790   -3.1710 C.2   253  TRP253      0.2264
     63  O         50.1330   75.7560   -3.6200 O.2   253  TRP253     -0.2867
     64  CB        49.4910   76.2560   -0.7340 C.3   253  TRP253      0.0550
     65  CG        49.2420   77.7170   -0.8810 C.ar  253  TRP253      0.0003
     66  CD1       50.1010   78.6280   -1.4360 C.ar  253  TRP253      0.0946
     67  CD2       48.0640   78.4360   -0.5220 C.ar  253  TRP253      0.0152
     68  NE1       49.5290   79.8850   -1.4190 N.ar  253  TRP253     -0.2442
     69  CE2       48.2790   79.7940   -0.8620 C.ar  253  TRP253      0.0810
     70  CE3       46.8520   78.0700    0.0660 C.ar  253  TRP253      0.0012
     71  CZ2       47.3240   80.7750   -0.6320 C.ar  253  TRP253      0.0191
     72  CZ3       45.9060   79.0500    0.2990 C.ar  253  TRP253      0.0001
     73  CH2       46.1460   80.3910   -0.0570 C.ar  253  TRP253      0.0015
     74  N         43.9230   75.8160   -0.6860 N.3   258  TRP258     -0.1241
     75  CA        44.5020   74.5250   -0.3920 C.3   258  TRP258      0.1605
     76  C         43.7600   73.4370   -1.1830 C.2   258  TRP258      0.2264
     77  O         42.6050   73.6300   -1.5780 O.2   258  TRP258     -0.2867
     78  CB        44.4520   74.2220    1.1040 C.3   258  TRP258      0.0550
     79  CG        45.3880   75.0870    1.9160 C.ar  258  TRP258      0.0003
     80  CD1       45.1120   76.2390    2.5740 C.ar  258  TRP258      0.0946
     81  CD2       46.7920   74.8300    2.1100 C.ar  258  TRP258      0.0152
     82  NE1       46.2470   76.7140    3.1880 N.ar  258  TRP258     -0.2442
     83  CE2       47.2960   75.8680    2.9150 C.ar  258  TRP258      0.0810
     84  CE3       47.6590   73.8210    1.6820 C.ar  258  TRP258      0.0012
     85  CZ2       48.6290   75.9190    3.3150 C.ar  258  TRP258      0.0191
     86  CZ3       48.9830   73.8700    2.0600 C.ar  258  TRP258      0.0001
     87  CH2       49.4590   74.9370    2.8770 C.ar  258  TRP258      0.0015
@<TRIPOS>BOND
     1    63    62    2
     2    62    61    1
     3    14    12    1
     4    15    13    1
     5    61    60    1
     6    61    64    1
     7    77    76    2
     8    66    68   ar
     9    66    65   ar
    10    68    69   ar
    11    76    75    1
    12    12    13    1
    13    12     9    1
    14    65    64    1
    15    65    67   ar
    16    69    71   ar
    17    69    67   ar
    18    74    75    1
    19    71    73   ar
    20    67    70   ar
    21    75    78    1
    22    11    10    2
    23    23    22    2
    24    73    72   ar
    25    10     9    1
    26    70    72   ar
    27     9     8    1
    28    24    22   am
    29    22    21    1
    30    78    79    1
    31     4     3    2
    32     8     3   am
    33    84    86   ar
    34    84    81   ar
    35    21    20    1
    36    79    81   ar
    37    79    80   ar
    38     3     2    1
    39    86    87   ar
    40    81    83   ar
    41     6     5    1
    42    80    82   ar
    43    87    85   ar
    44    83    82   ar
    45    83    85   ar
    46    20    17    1
    47    17    16    1
    48    17    18    1
    49     5     2    1
    50     5     7    1
    51     2     1    1
    52    59    56    1
    53    18    19    2
    54    18    25   am
    55    28    27    2
    56    56    55    1
    57    56    57    1
    58    25    26    1
    59    55    49   am
    60    27    26    1
    61    27    31   am
    62    57    58    2
    63    26    29    1
    64    42    41    2
    65    38    36   am
    66    49    48    1
    67    49    50    2
    68    29    30    1
    69    32    31    1
    70    32    33    1
    71    32    35    1
    72    48    51    1
    73    48    47    1
    74    33    34    2
    75    33    39   am
    76    53    52    2
    77    41    47   am
    78    41    40    1
    79    36    35    1
    80    36    37    2
    81    51    52    1
    82    39    40    1
    83    52    54   am
    84    40    43    1
    85    43    44    1
    86    44    46    1
    87    44    45    1
