@<TRIPOS>MOLECULE
tmp/1pvlA00.pdb
 89 87 0 0 0
SMALL
GASTEIGER

@<TRIPOS>ATOM
      1  N         35.1950   65.3590    9.1170 N.3   170  ASN170     -0.1225
      2  CA        36.2370   66.3770    9.3190 C.3   170  ASN170      0.1785
      3  C         35.5040   67.6290    9.8130 C.2   170  ASN170      0.2597
      4  O         34.8470   68.3220    9.0150 O.2   170  ASN170     -0.2718
      5  CB        36.9950   66.6260    8.0420 C.3   170  ASN170      0.1169
      6  CG        38.0510   67.7040    8.0900 C.2   170  ASN170      0.2627
      7  OD1       38.8510   67.7960    7.1260 O.2   170  ASN170     -0.2716
      8  ND2       38.0940   68.5130    9.1410 N.am  170  ASN170     -0.0877
      9  N         35.5700   67.8880   11.1210 N.am  171  ASN171     -0.1974
     10  CA        34.8490   69.0720   11.5940 C.3   171  ASN171      0.1688
     11  C         33.4280   69.2010   11.0770 C.2   171  ASN171      0.2292
     12  O         33.0840   70.2560   10.5090 O.2   171  ASN171     -0.2864
     13  CB        35.6380   70.3420   11.2480 C.3   171  ASN171      0.1181
     14  CG        36.3630   70.8540   12.4730 C.2   171  ASN171      0.2629
     15  OD1       37.1140   70.1750   13.1540 O.2   171  ASN171     -0.2716
     16  ND2       36.0330   72.1390   12.7290 N.am  171  ASN171     -0.0877
     17  N         32.0640   68.0650    8.4680 N.3   173  TRP173     -0.1241
     18  CA        31.9350   67.9000    7.0160 C.3   173  TRP173      0.1605
     19  C         32.2090   66.4100    6.7400 C.2   173  TRP173      0.2264
     20  O         32.9860   65.7820    7.4720 O.2   173  TRP173     -0.2867
     21  CB        32.9150   68.7550    6.2390 C.3   173  TRP173      0.0550
     22  CG        32.6380   70.2240    6.1840 C.ar  173  TRP173      0.0003
     23  CD1       32.5480   71.0930    7.2270 C.ar  173  TRP173      0.0946
     24  CD2       32.4320   71.0120    4.9950 C.ar  173  TRP173      0.0152
     25  NE1       32.2740   72.3590    6.7730 N.ar  173  TRP173     -0.2442
     26  CE2       32.2080   72.3390    5.4040 C.ar  173  TRP173      0.0810
     27  CE3       32.3980   70.7090    3.6250 C.ar  173  TRP173      0.0012
     28  CZ2       31.9630   73.3770    4.4940 C.ar  173  TRP173      0.0191
     29  CZ3       32.1560   71.7340    2.7210 C.ar  173  TRP173      0.0001
     30  CH2       31.9500   73.0490    3.1630 C.ar  173  TRP173      0.0015
     31  N         33.6930   61.4570    4.7400 N.3   176  TYR176     -0.1241
     32  CA        34.6700   61.2900    3.6690 C.3   176  TYR176      0.1605
     33  C         35.2270   59.8770    3.6390 C.2   176  TYR176      0.2264
     34  O         35.0250   59.0850    4.5860 O.2   176  TYR176     -0.2867
     35  CB        35.7930   62.3150    3.7870 C.3   176  TYR176      0.0534
     36  CG        35.4070   63.7600    3.5800 C.ar  176  TYR176     -0.0201
     37  CD1       35.1200   64.2430    2.3100 C.ar  176  TYR176     -0.0009
     38  CD2       35.3650   64.6550    4.6320 C.ar  176  TYR176     -0.0009
     39  CE1       34.7730   65.5580    2.1010 C.ar  176  TYR176      0.0417
     40  CE2       35.0290   65.9810    4.4490 C.ar  176  TYR176      0.0417
     41  CZ        34.7350   66.4270    3.1790 C.ar  176  TYR176      0.1957
     42  OH        34.3970   67.7440    2.9860 O.3   176  TYR176     -0.2866
     43  N         39.1450   66.1550    0.6090 N.3   188  GLU188     -0.1245
     44  CA        39.3580   66.9610    1.8160 C.3   188  GLU188      0.1567
     45  C         39.2160   66.2010    3.1260 C.2   188  GLU188      0.2260
     46  O         39.1370   66.8510    4.1730 O.2   188  GLU188     -0.2867
     47  CB        38.4230   68.1800    1.8550 C.3   188  GLU188      0.0388
     48  CG        38.5580   69.0850    0.6240 C.3   188  GLU188      0.1160
     49  CD        37.6010   70.2810    0.7500 C.2   188  GLU188      0.3649
     50  OE1       38.0170   71.3110    1.3180 O.co2 188  GLU188     -0.2457
     51  OE2       36.4660   70.1520    0.2850 O.co2 188  GLU188     -0.2457
     52  N         42.0060   67.4550    5.3810 N.3   191  LEU191     -0.1231
     53  CA        42.5680   68.7860    5.1050 C.3   191  LEU191      0.1693
     54  C         42.1800   69.7080    6.2800 C.2   191  LEU191      0.2593
     55  O         41.0650   69.5830    6.7930 O.2   191  LEU191     -0.2718
     56  CB        41.8840   69.3580    3.8630 C.3   191  LEU191      0.0284
     57  CG        42.6620   70.1610    2.8480 C.3   191  LEU191      0.0019
     58  CD1       41.7440   71.0670    2.0260 C.3   191  LEU191      0.0001
     59  CD2       43.9300   70.7840    3.2890 C.3   191  LEU191      0.0001
     60  N         43.0290   70.6350    6.6540 N.am  192  GLY192     -0.1942
     61  CA        42.7560   71.5710    7.7240 C.3   192  GLY192      0.2014
     62  C         41.6440   72.5450    7.3230 C.2   192  GLY192      0.2640
     63  O         40.4810   72.4180    7.7800 O.2   192  GLY192     -0.2714
     64  N         41.9400   73.4940    6.4770 N.am  193  SER193     -0.1935
     65  CA        40.9950   74.5040    6.0110 C.3   193  SER193      0.2055
     66  C         41.3910   74.9130    4.5910 C.2   193  SER193      0.2643
     67  O         42.5970   74.8710    4.3160 O.2   193  SER193     -0.2714
     68  CB        41.1070   75.7510    6.9090 C.3   193  SER193      0.2130
     69  OG        40.3770   76.8160    6.3620 O.3   193  SER193     -0.2179
     70  N         40.4300   75.2940    3.7690 N.am  194  ARG194     -0.1963
     71  CA        40.7320   75.6910    2.4020 C.3   194  ARG194      0.1729
     72  C         41.5100   76.9930    2.3030 C.2   194  ARG194      0.2616
     73  O         42.2200   77.1970    1.2970 O.2   194  ARG194     -0.2715
     74  CB        39.4360   75.8530    1.5860 C.3   194  ARG194      0.0348
     75  CG        38.6430   74.5650    1.4500 C.3   194  ARG194      0.0492
     76  CD        37.2280   74.8640    0.9570 C.3   194  ARG194      0.2205
     77  NE        36.4790   73.6390    0.7050 N.pl3 194  ARG194     -0.0865
     78  CZ        35.2130   73.6410    0.3040 C.cat 194  ARG194      0.5346
     79  NH1       34.5670   74.7980    0.1130 N.pl3 194  ARG194      0.1354
     80  NH2       34.6000   72.4770    0.0760 N.pl3 194  ARG194      0.1354
     81  N         41.3650   77.9020    3.2550 N.am  195  GLN195     -0.1977
     82  CA        42.0970   79.1620    3.1430 C.3   195  GLN195      0.1601
     83  C         43.0820   79.3540    4.2700 C.2   195  GLN195      0.2287
     84  O         43.5470   80.4800    4.5190 O.2   195  GLN195     -0.2864
     85  CB        41.1320   80.3540    3.0300 C.3   195  GLN195      0.0394
     86  CG        40.1650   80.2890    1.8560 C.3   195  GLN195      0.0908
     87  CD        40.8460   80.0430    0.5230 C.2   195  GLN195      0.2608
     88  OE1       40.3200   79.2840   -0.3130 O.2   195  GLN195     -0.2717
     89  NE2       42.0100   80.6290    0.3220 N.am  195  GLN195     -0.0878
@<TRIPOS>BOND
     1    88    87    2
     2    80    78    1
     3    79    78    1
     4    51    49   ar
     5    78    77    2
     6    89    87   am
     7    87    86    1
     8    43    44    1
     9    48    49    1
    10    48    47    1
    11    77    76    1
    12    49    50   ar
    13    76    75    1
    14    73    72    2
    15    75    74    1
    16    74    71    1
    17    44    47    1
    18    44    45    1
    19    86    85    1
    20    58    57    1
    21    39    37   ar
    22    39    41   ar
    23    72    71    1
    24    72    81   am
    25    37    36   ar
    26    71    70    1
    27    29    30   ar
    28    29    27   ar
    29    57    59    1
    30    57    56    1
    31    42    41    1
    32    85    82    1
    33    45    46    2
    34    82    81    1
    35    82    83    1
    36    30    28   ar
    37    41    40   ar
    38    36    35    1
    39    36    38   ar
    40    27    24   ar
    41    33    32    1
    42    33    34    2
    43    32    35    1
    44    32    31    1
    45    70    66   am
    46    56    53    1
    47    83    84    2
    48    67    66    2
    49    40    38   ar
    50    28    26   ar
    51    66    65    1
    52    24    26   ar
    53    24    22   ar
    54    53    52    1
    55    53    54    1
    56    26    25   ar
    57    65    64    1
    58    65    68    1
    59    22    21    1
    60    22    23   ar
    61    21    18    1
    62    54    60   am
    63    54    55    2
    64    69    68    1
    65    64    62   am
    66    60    61    1
    67    19    18    1
    68    19    20    2
    69    25    23   ar
    70    18    17    1
    71     7     6    2
    72    62    61    1
    73    62    63    2
    74     5     6    1
    75     5     2    1
    76     6     8   am
    77     4     3    2
    78     1     2    1
    79     2     3    1
    80     3     9   am
    81    12    11    2
    82    11    10    1
    83     9    10    1
    84    13    10    1
    85    13    14    1
    86    14    16   am
    87    14    15    2
