@<TRIPOS>MOLECULE
tmp/1pvnC00.pdb
 213 203 0 0 0
SMALL
GASTEIGER

@<TRIPOS>ATOM
      1  N         28.7640   38.0670   22.2090 N.3    56  ALA56      -0.1231
      2  CA        29.2600   38.2370   23.5690 C.3    56  ALA56       0.1694
      3  C         30.7140   37.8350   23.7980 C.2    56  ALA56       0.2592
      4  O         31.2530   36.9500   23.1250 O.2    56  ALA56      -0.2718
      5  CB        28.3590   37.4730   24.5360 C.3    56  ALA56       0.0304
      6  N         31.3320   38.4940   24.7720 N.am   57  ILE57      -0.1966
      7  CA        32.7220   38.2490   25.1430 C.3    57  ILE57       0.1727
      8  C         32.6950   37.0460   26.0720 C.2    57  ILE57       0.2616
      9  O         32.8950   37.1770   27.2820 O.2    57  ILE57      -0.2715
     10  CB        33.2980   39.4690   25.8920 C.3    57  ILE57       0.0290
     11  CG1       32.9400   40.7470   25.1240 C.3    57  ILE57       0.0022
     12  CG2       34.8170   39.3420   26.0220 C.3    57  ILE57       0.0023
     13  CD1       33.4010   42.0230   25.7850 C.3    57  ILE57       0.0001
     14  N         32.4510   35.8770   25.4890 N.am   58  MET58      -0.1977
     15  CA        32.3270   34.6430   26.2580 C.3    58  MET58       0.1605
     16  C         33.0390   33.4390   25.6480 C.2    58  MET58       0.2287
     17  O         33.0810   33.2780   24.4280 O.2    58  MET58      -0.2864
     18  CB        30.8390   34.3090   26.4190 C.3    58  MET58       0.0413
     19  CG        30.0200   35.4200   27.0700 C.3    58  MET58       0.0598
     20  SD        28.2390   35.0670   27.0780 S.3    58  MET58      -0.1393
     21  CE        28.1750   33.7670   28.3130 C.3    58  MET58       0.0692
     22  N         35.4460   43.8890   29.7350 N.3   129  ASP129     -0.1239
     23  CA        34.4150   42.9240   30.0990 C.3   129  ASP129      0.1674
     24  C         34.1920   42.9620   31.6080 C.2   129  ASP129      0.2266
     25  O         34.9810   42.4140   32.3750 O.2   129  ASP129     -0.2867
     26  CB        34.8600   41.5310   29.6310 C.3   129  ASP129      0.1410
     27  CG        33.9180   40.4230   30.0660 C.2   129  ASP129      0.3668
     28  OD1       32.6870   40.6360   30.0790 O.co2 129  ASP129     -0.2456
     29  OD2       34.4200   39.3210   30.3790 O.co2 129  ASP129     -0.2456
     30  N         29.0090   48.6450   31.3240 N.3   159  ASN159     -0.1240
     31  CA        27.8260   47.8620   31.5740 C.3   159  ASN159      0.1653
     32  C         27.3810   48.5980   32.7980 C.2   159  ASN159      0.2266
     33  O         27.8080   48.3610   33.9400 O.2   159  ASN159     -0.2867
     34  CB        28.0740   46.3850   31.8130 C.3   159  ASN159      0.1155
     35  CG        27.9930   45.5980   30.5250 C.2   159  ASN159      0.2627
     36  OD1       28.9010   45.6630   29.7040 O.2   159  ASN159     -0.2716
     37  ND2       26.8930   44.8760   30.3240 N.am  159  ASN159     -0.0877
     38  N         28.4700   49.8770   26.9730 N.3   178  LYS178     -0.1245
     39  CA        27.5970   48.7110   27.0440 C.3   178  LYS178      0.1561
     40  C         26.5940   48.8060   28.1950 C.2   178  LYS178      0.2260
     41  O         26.9510   49.1440   29.3260 O.2   178  LYS178     -0.2867
     42  CB        28.4550   47.4510   27.1620 C.3   178  LYS178      0.0271
     43  CG        27.7540   46.1810   26.7220 C.3   178  LYS178      0.0035
     44  CD        28.6690   45.3240   25.8510 C.3   178  LYS178      0.0206
     45  CE        29.9240   44.8980   26.5990 C.3   178  LYS178      0.1093
     46  NZ        29.5680   44.1260   27.8230 N.3   178  LYS178     -0.1314
     47  N         22.5570   41.7830   34.7480 N.3   182  GLY182     -0.1225
     48  CA        21.6490   40.7320   35.1770 C.3   182  GLY182      0.1811
     49  C         20.6340   40.1900   34.1920 C.2   182  GLY182      0.2280
     50  O         19.9400   39.2240   34.5090 O.2   182  GLY182     -0.2866
     51  N         21.2540   38.7120   31.3060 N.3   184  GLY184     -0.1210
     52  CA        21.7280   37.5570   30.5610 C.3   184  GLY184      0.1956
     53  C         20.9940   36.2620   30.8750 C.2   184  GLY184      0.2613
     54  O         20.6540   35.9900   32.0250 O.2   184  GLY184     -0.2717
     55  N         20.7590   35.4600   29.8400 N.am  185  SER185     -0.1938
     56  CA        20.0580   34.1870   29.9760 C.3   185  SER185      0.2055
     57  C         20.6830   33.2480   31.0040 C.2   185  SER185      0.2643
     58  O         19.9730   32.5240   31.6940 O.2   185  SER185     -0.2714
     59  CB        20.0030   33.4800   28.6250 C.3   185  SER185      0.2130
     60  OG        21.3120   33.2370   28.1470 O.3   185  SER185     -0.2179
     61  N         22.0110   33.2540   31.1020 N.am  186  ILE186     -0.1963
     62  CA        22.7060   32.3840   32.0500 C.3   186  ILE186      0.1727
     63  C         23.1940   33.1140   33.2950 C.2   186  ILE186      0.2616
     64  O         23.9750   32.5700   34.0740 O.2   186  ILE186     -0.2715
     65  CB        23.9180   31.6800   31.3720 C.3   186  ILE186      0.0290
     66  CG1       24.6770   32.6610   30.4690 C.3   186  ILE186      0.0022
     67  CG2       23.4330   30.4970   30.5250 C.3   186  ILE186      0.0023
     68  CD1       25.2270   33.8840   31.1670 C.3   186  ILE186      0.0001
     69  N         22.7230   34.3400   33.4820 N.am  187  CYS187     -0.1968
     70  CA        23.1240   35.1650   34.6130 C.3   187  CYS187      0.1712
     71  C         22.1910   35.0940   35.8210 C.2   187  CYS187      0.2296
     72  O         20.9670   35.1710   35.6790 O.2   187  CYS187     -0.2864
     73  CB        23.2410   36.6170   34.1440 C.3   187  CYS187      0.0983
     74  SG        23.6650   37.7870   35.4210 S.3   187  CYS187     -0.0798
     75  N         23.1220   37.0120   38.7060 N.3   189  THR189     -0.1218
     76  CA        23.6340   38.0960   39.5380 C.3   189  THR189      0.1862
     77  C         22.5300   38.7830   40.3410 C.2   189  THR189      0.2287
     78  O         22.7030   39.0700   41.5270 O.2   189  THR189     -0.2866
     79  CB        24.3500   39.1640   38.6830 C.3   189  THR189      0.1770
     80  OG1       25.5790   38.6270   38.1790 O.3   189  THR189     -0.2211
     81  CG2       24.6490   40.4080   39.5140 C.3   189  THR189      0.0375
     82  N         23.2770   44.9860   25.9600 N.3   226  ASP226     -0.1225
     83  CA        23.9060   43.6960   26.1750 C.3   226  ASP226      0.1805
     84  C         23.1280   42.7350   27.0710 C.2   226  ASP226      0.2598
     85  O         22.9480   42.9880   28.2610 O.2   226  ASP226     -0.2718
     86  CB        25.3110   43.9410   26.7430 C.3   226  ASP226      0.1424
     87  CG        26.0410   42.6610   27.1030 C.2   226  ASP226      0.3668
     88  OD1       25.6960   41.5910   26.5580 O.co2 226  ASP226     -0.2456
     89  OD2       26.9780   42.7370   27.9270 O.co2 226  ASP226     -0.2456
     90  N         22.6690   41.6350   26.4800 N.am  227  GLY227     -0.1942
     91  CA        21.9470   40.6190   27.2270 C.3   227  GLY227      0.2014
     92  C         20.4330   40.7320   27.2410 C.2   227  GLY227      0.2639
     93  O         19.8760   41.8120   27.0300 O.2   227  GLY227     -0.2714
     94  N         19.7680   39.6000   27.4770 N.am  228  GLY228     -0.1939
     95  CA        18.3170   39.5930   27.5600 C.3   228  GLY228      0.2014
     96  C         17.5140   39.4130   26.2870 C.2   228  GLY228      0.2638
     97  O         16.2840   39.3240   26.3520 O.2   228  GLY228     -0.2714
     98  N         18.1760   39.3700   25.1330 N.am  229  ILE229     -0.1977
     99  CA        17.4550   39.1850   23.8770 C.3   229  ILE229      0.1596
    100  C         16.9780   37.7350   23.7930 C.2   229  ILE229      0.2287
    101  O         17.7880   36.8080   23.7550 O.2   229  ILE229     -0.2864
    102  CB        18.3470   39.4730   22.6470 C.3   229  ILE229      0.0276
    103  CG1       18.7990   40.9400   22.6460 C.3   229  ILE229      0.0022
    104  CG2       17.5840   39.1390   21.3690 C.3   229  ILE229      0.0022
    105  CD1       17.6710   41.9410   22.4740 C.3   229  ILE229      0.0001
    106  N         24.4060   43.1600   21.8090 N.3   247  MET247     -0.1230
    107  CA        25.3460   42.0900   22.0990 C.3   247  MET247      0.1702
    108  C         24.5400   40.8940   22.5710 C.2   247  MET247      0.2592
    109  O         23.6950   41.0140   23.4720 O.2   247  MET247     -0.2718
    110  CB        26.3500   42.4940   23.1820 C.3   247  MET247      0.0401
    111  CG        27.3250   41.3670   23.5190 C.3   247  MET247      0.0596
    112  SD        28.6700   41.8280   24.6210 S.3   247  MET247     -0.1393
    113  CE        29.8480   42.5160   23.4300 C.3   247  MET247      0.0692
    114  N         24.7970   39.7390   21.9640 N.am  248  LEU248     -0.1966
    115  CA        24.0720   38.5300   22.3250 C.3   248  LEU248      0.1728
    116  C         24.9850   37.3440   22.6010 C.2   248  LEU248      0.2617
    117  O         26.0270   37.1700   21.9610 O.2   248  LEU248     -0.2715
    118  CB        23.0800   38.1500   21.2180 C.3   248  LEU248      0.0311
    119  CG        22.1620   39.2580   20.6800 C.3   248  LEU248      0.0022
    120  CD1       22.8830   40.0370   19.5890 C.3   248  LEU248      0.0001
    121  CD2       20.8940   38.6440   20.1120 C.3   248  LEU248      0.0001
    122  N         24.5780   36.5340   23.5710 N.am  249  GLY249     -0.1940
    123  CA        25.3350   35.3500   23.9200 C.3   249  GLY249      0.2014
    124  C         24.5510   34.1280   23.4810 C.2   249  GLY249      0.2639
    125  O         24.9240   33.4480   22.5260 O.2   249  GLY249     -0.2714
    126  N         23.4400   33.8770   24.1670 N.am  250  ARG250     -0.1963
    127  CA        22.5730   32.7320   23.8810 C.3   250  ARG250      0.1729
    128  C         22.2180   32.5890   22.4070 C.2   250  ARG250      0.2616
    129  O         22.2850   31.4920   21.8440 O.2   250  ARG250     -0.2715
    130  CB        21.2690   32.8370   24.6830 C.3   250  ARG250      0.0348
    131  CG        20.4790   31.5350   24.7260 C.3   250  ARG250      0.0492
    132  CD        19.0530   31.7210   25.2220 C.3   250  ARG250      0.2205
    133  NE        18.1980   32.0620   24.1070 N.pl3 250  ARG250     -0.0865
    134  CZ        17.3850   31.2460   23.4450 C.cat 250  ARG250      0.5346
    135  NH1       17.2400   29.9620   23.7650 N.pl3 250  ARG250      0.1354
    136  NH2       16.7520   31.7350   22.3970 N.pl3 250  ARG250      0.1354
    137  N         21.8160   33.6970   21.7950 N.am  251  TYR251     -0.1974
    138  CA        21.4380   33.7170   20.3890 C.3   251  TYR251      0.1639
    139  C         22.4810   33.0470   19.4940 C.2   251  TYR251      0.2290
    140  O         22.1340   32.2480   18.6190 O.2   251  TYR251     -0.2864
    141  CB        21.2340   35.1630   19.9230 C.3   251  TYR251      0.0560
    142  CG        20.8430   35.2830   18.4680 C.ar  251  TYR251     -0.0198
    143  CD1       19.5300   35.0450   18.0550 C.ar  251  TYR251     -0.0009
    144  CD2       21.7890   35.6230   17.4990 C.ar  251  TYR251     -0.0009
    145  CE1       19.1710   35.1440   16.7110 C.ar  251  TYR251      0.0417
    146  CE2       21.4390   35.7250   16.1550 C.ar  251  TYR251      0.0417
    147  CZ        20.1330   35.4860   15.7670 C.ar  251  TYR251      0.1957
    148  OH        19.7890   35.5860   14.4360 O.3   251  TYR251     -0.2866
    149  N         26.3960   26.0180   26.7410 N.3   273  TYR273     -0.1241
    150  CA        26.4420   27.4650   26.8990 C.3   273  TYR273      0.1605
    151  C         26.5450   27.7530   28.3880 C.2   273  TYR273      0.2264
    152  O         25.6850   27.3410   29.1600 O.2   273  TYR273     -0.2867
    153  CB        25.1760   28.1090   26.3200 C.3   273  TYR273      0.0534
    154  CG        25.1360   29.6180   26.4530 C.ar  273  TYR273     -0.0201
    155  CD1       26.2050   30.4030   26.0210 C.ar  273  TYR273     -0.0009
    156  CD2       24.0340   30.2610   27.0210 C.ar  273  TYR273     -0.0009
    157  CE1       26.1820   31.7950   26.1570 C.ar  273  TYR273      0.0417
    158  CE2       23.9990   31.6560   27.1590 C.ar  273  TYR273      0.0417
    159  CZ        25.0770   32.4120   26.7300 C.ar  273  TYR273      0.1957
    160  OH        25.0680   33.7810   26.8970 O.3   273  TYR273     -0.2866
    161  N         27.8390   30.7260   31.6230 N.3   275  GLY275     -0.1210
    162  CA        28.1610   32.1020   31.9490 C.3   275  GLY275      0.1956
    163  C         29.6080   32.2780   32.3520 C.2   275  GLY275      0.2612
    164  O         30.2490   31.3360   32.8290 O.2   275  GLY275     -0.2717
    165  N         30.1290   33.4850   32.1580 N.am  276  GLU276     -0.1965
    166  CA        31.5070   33.7790   32.5170 C.3   276  GLU276      0.1733
    167  C         31.6480   33.7730   34.0370 C.2   276  GLU276      0.2616
    168  O         32.7560   33.6680   34.5680 O.2   276  GLU276     -0.2715
    169  CB        31.9160   35.1400   31.9490 C.3   276  GLU276      0.0429
    170  CG        32.0630   35.1550   30.4360 C.3   276  GLU276      0.1163
    171  CD        33.2430   34.3120   29.9600 C.2   276  GLU276      0.3649
    172  OE1       34.3790   34.5820   30.4060 O.co2 276  GLU276     -0.2457
    173  OE2       33.0370   33.3860   29.1440 O.co2 276  GLU276     -0.2457
    174  N         30.5120   33.8800   34.7230 N.am  277  GLY277     -0.1955
    175  CA        30.5040   33.8830   36.1750 C.3   277  GLY277      0.1869
    176  C         30.2560   32.5100   36.7750 C.2   277  GLY277      0.2309
    177  O         30.0510   32.3860   37.9820 O.2   277  GLY277     -0.2863
    178  N         35.8960   39.6150   35.5050 N.3   286  ARG286     -0.1231
    179  CA        34.6210   40.2370   35.1490 C.3   286  ARG286      0.1694
    180  C         33.8390   40.7300   36.3740 C.2   286  ARG286      0.2592
    181  O         33.0290   41.6540   36.2720 O.2   286  ARG286     -0.2718
    182  CB        33.7700   39.2390   34.3520 C.3   286  ARG286      0.0321
    183  CG        32.3910   39.7460   33.9560 C.3   286  ARG286      0.0489
    184  CD        31.5790   38.6610   33.2470 C.3   286  ARG286      0.2205
    185  NE        30.1610   39.0170   33.1730 N.pl3 286  ARG286     -0.0865
    186  CZ        29.6780   40.0060   32.4300 C.cat 286  ARG286      0.5346
    187  NH1       30.4970   40.7360   31.6820 N.pl3 286  ARG286      0.1354
    188  NH2       28.3810   40.2900   32.4600 N.pl3 286  ARG286      0.1354
    189  N         34.0880   40.1190   37.5300 N.am  287  TYR287     -0.1976
    190  CA        33.3920   40.5040   38.7550 C.3   287  TYR287      0.1639
    191  C         34.3410   41.0660   39.8010 C.2   287  TYR287      0.2290
    192  O         33.9670   41.2250   40.9650 O.2   287  TYR287     -0.2864
    193  CB        32.6540   39.2960   39.3350 C.3   287  TYR287      0.0560
    194  CG        31.7630   38.6240   38.3250 C.ar  287  TYR287     -0.0198
    195  CD1       32.2770   37.6920   37.4280 C.ar  287  TYR287     -0.0009
    196  CD2       30.4260   38.9930   38.2010 C.ar  287  TYR287     -0.0009
    197  CE1       31.4840   37.1510   36.4210 C.ar  287  TYR287      0.0417
    198  CE2       29.6250   38.4620   37.2010 C.ar  287  TYR287      0.0417
    199  CZ        30.1620   37.5460   36.3110 C.ar  287  TYR287      0.1957
    200  OH        29.3960   37.0740   35.2770 O.3   287  TYR287     -0.2866
    201  N         27.9530   33.5840   39.7200 N.3   299  GLU299     -0.1231
    202  CA        26.9660   34.5770   39.3100 C.3   299  GLU299      0.1699
    203  C         26.4100   34.1830   37.9460 C.2   299  GLU299      0.2592
    204  O         25.6680   34.9430   37.3180 O.2   299  GLU299     -0.2718
    205  CB        27.5890   35.9780   39.2470 C.3   299  GLU299      0.0402
    206  CG        28.1300   36.4720   40.5780 C.3   299  GLU299      0.1161
    207  CD        28.3870   37.9670   40.5950 C.2   299  GLU299      0.3649
    208  OE1       29.2990   38.4000   41.3340 O.co2 299  GLU299     -0.2457
    209  OE2       27.6710   38.7070   39.8800 O.co2 299  GLU299     -0.2457
    210  N         26.7770   32.9830   37.5030 N.am  300  GLY300     -0.1957
    211  CA        26.3170   32.4630   36.2280 C.3   300  GLY300      0.1869
    212  C         26.1760   30.9530   36.3040 C.2   300  GLY300      0.2309
    213  O         26.7150   30.3220   37.2120 O.2   300  GLY300     -0.2863
@<TRIPOS>BOND
     1   148   147    1
     2   147   146   ar
     3   147   145   ar
     4   146   144   ar
     5   145   143   ar
     6   144   142   ar
     7   143   142   ar
     8   142   141    1
     9   140   139    2
    10   139   138    1
    11   120   119    1
    12   141   138    1
    13   121   119    1
    14   138   137    1
    15   119   118    1
    16   118   115    1
    17   104   102    1
    18   137   128   am
    19   106   107    1
    20   129   128    2
    21   117   116    2
    22   114   115    1
    23   114   108   am
    24   107   108    1
    25   107   110    1
    26     1     2    1
    27   115   116    1
    28   136   134    1
    29   128   127    1
    30   105   103    1
    31   125   124    2
    32   108   109    2
    33   116   122   am
    34   103   102    1
    35   102    99    1
    36     4     3    2
    37   110   111    1
    38   113   112    1
    39   134   135    1
    40   134   133    2
    41   124   123    1
    42   124   126   am
    43   111   112    1
    44     2     3    1
    45     2     5    1
    46   122   123    1
    47   101   100    2
    48   100    99    1
    49     3     6   am
    50    99    98    1
    51   127   126    1
    52   127   130    1
    53   133   132    1
    54    17    16    2
    55   130   131    1
    56   131   132    1
    57     6     7    1
    58    11    13    1
    59    11    10    1
    60    98    96   am
    61     7    10    1
    62     7     8    1
    63    14     8   am
    64    14    15    1
    65    16    15    1
    66    44    45    1
    67    44    43    1
    68    10    12    1
    69    82    83    1
    70   155   157   ar
    71   155   154   ar
    72     8     9    2
    73   157   159   ar
    74    83    86    1
    75    83    84    1
    76    15    18    1
    77    96    97    2
    78    96    95    1
    79   153   154    1
    80   153   150    1
    81    18    19    1
    82   154   156   ar
    83    90    84   am
    84    90    91    1
    85    88    87   ar
    86    45    46    1
    87    43    42    1
    88   159   160    1
    89   159   158   ar
    90   149   150    1
    91    86    87    1
    92   150   151    1
    93    38    39    1
    94   156   158   ar
    95    93    92    2
    96    39    42    1
    97    39    40    1
    98    19    20    1
    99    84    85    2
   100    20    21    1
   101    87    89   ar
   102    91    92    1
   103    92    94   am
   104    94    95    1
   105    60    59    1
   106    40    41    2
   107   151   152    2
   108    59    56    1
   109   173   171   ar
   110    26    27    1
   111    26    23    1
   112    36    35    2
   113    22    23    1
   114    55    56    1
   115    55    53   am
   116   171   172   ar
   117   171   170    1
   118    56    57    1
   119    27    28   ar
   120    27    29   ar
   121    23    24    1
   122    37    35   am
   123   170   169    1
   124    66    68    1
   125    66    65    1
   126    67    65    1
   127    35    34    1
   128    52    53    1
   129    52    51    1
   130    53    54    2
   131    57    61   am
   132    57    58    2
   133    61    62    1
   134    30    31    1
   135    65    62    1
   136    31    34    1
   137    31    32    1
   138    24    25    2
   139   161   162    1
   140   187   186    1
   141   169   166    1
   142   162   163    1
   143    62    63    1
   144   165   163   am
   145   165   166    1
   146   163   164    2
   147   186   188    1
   148   186   185    2
   149   166   167    1
   150    32    33    2
   151   185   184    1
   152   184   183    1
   153    63    69   am
   154    63    64    2
   155    69    70    1
   156   183   182    1
   157   167   168    2
   158   167   174   am
   159    73    70    1
   160    73    74    1
   161    49    50    2
   162    49    48    1
   163   182   179    1
   164    70    71    1
   165   174   175    1
   166    47    48    1
   167   179   178    1
   168   179   180    1
   169   200   199    1
   170    72    71    2
   171   175   176    1
   172   211   212    1
   173   211   210    1
   174   181   180    2
   175   212   213    2
   176   199   197   ar
   177   199   198   ar
   178   180   189   am
   179   197   195   ar
   180   176   177    2
   181   198   196   ar
   182   204   203    2
   183   195   194   ar
   184   210   203   am
   185   189   190    1
   186   203   202    1
   187    80    79    1
   188   196   194   ar
   189   194   193    1
   190    79    81    1
   191    79    76    1
   192    75    76    1
   193   190   193    1
   194   190   191    1
   195   205   202    1
   196   205   206    1
   197   202   201    1
   198    76    77    1
   199   191   192    2
   200   209   207   ar
   201    77    78    2
   202   206   207    1
   203   207   208   ar
