@<TRIPOS>MOLECULE
tmp/1pvoF01.pdb
 123 118 0 0 0
SMALL
GASTEIGER

@<TRIPOS>ATOM
      1  N          5.0440  -49.7370   32.4930 N.3   148  THR148     -0.1218
      2  CA         5.6980  -48.4250   32.4990 C.3   148  THR148      0.1862
      3  C          4.8680  -47.3880   31.7430 C.2   148  THR148      0.2287
      4  O          4.9440  -46.1930   32.0290 O.2   148  THR148     -0.2866
      5  CB         7.1170  -48.5090   31.8780 C.3   148  THR148      0.1770
      6  OG1        7.0170  -48.5310   30.4470 O.3   148  THR148     -0.2211
      7  CG2        7.7960  -49.8410   32.2130 C.3   148  THR148      0.0375
      8  N          2.0630  -45.6980   33.5860 N.3   151  LEU151     -0.1231
      9  CA         2.4480  -44.5130   34.3430 C.3   151  LEU151      0.1693
     10  C          1.4690  -43.3830   34.0550 C.2   151  LEU151      0.2592
     11  O          0.8250  -42.8680   34.9680 O.2   151  LEU151     -0.2718
     12  CB         3.8790  -44.0730   34.0000 C.3   151  LEU151      0.0284
     13  CG         5.0370  -44.5410   34.8910 C.3   151  LEU151      0.0019
     14  CD1        6.3510  -43.9210   34.4290 C.3   151  LEU151      0.0001
     15  CD2        4.7870  -44.2350   36.3650 C.3   151  LEU151      0.0001
     16  N          1.3360  -43.0330   32.7740 N.am  152  THR152     -0.1953
     17  CA         0.4440  -41.9550   32.3430 C.3   152  THR152      0.1897
     18  C         -1.0150  -42.2100   32.7630 C.2   152  THR152      0.2313
     19  O         -1.6170  -41.3830   33.4490 O.2   152  THR152     -0.2863
     20  CB         0.5870  -41.7090   30.8090 C.3   152  THR152      0.1794
     21  OG1        1.7400  -40.8950   30.5620 O.3   152  THR152     -0.2208
     22  CG2       -0.5450  -40.8590   30.2740 C.3   152  THR152      0.0378
     23  N          3.6650  -26.7330   23.0660 N.3   174  PRO174     -0.2102
     24  CA         4.4490  -27.5990   22.1800 C.3   174  PRO174      0.1504
     25  C          5.5290  -28.3310   22.9740 C.2   174  PRO174      0.2576
     26  O          6.0460  -27.7780   23.9500 O.2   174  PRO174     -0.2718
     27  CB         5.0880  -26.6100   21.1850 C.3   174  PRO174      0.0282
     28  CG         4.4090  -25.2840   21.4240 C.3   174  PRO174      0.0208
     29  CD         3.9620  -25.3040   22.8480 C.3   174  PRO174      0.0893
     30  N          5.8550  -29.5550   22.5610 N.am  175  LYS175     -0.1966
     31  CA         6.8960  -30.3680   23.2050 C.3   175  LYS175      0.1728
     32  C          6.5310  -30.7270   24.6500 C.2   175  LYS175      0.2616
     33  O          7.2960  -30.4670   25.5800 O.2   175  LYS175     -0.2715
     34  CB         8.2770  -29.6800   23.1300 C.3   175  LYS175      0.0311
     35  CG         8.8410  -29.5470   21.7270 C.3   175  LYS175      0.0038
     36  CD         9.8620  -30.6360   21.4390 C.3   175  LYS175      0.0206
     37  CE        10.7770  -30.2510   20.2820 C.3   175  LYS175      0.1093
     38  NZ        11.3180  -31.4470   19.5800 N.3   175  LYS175     -0.1314
     39  N          5.3620  -31.3280   24.8260 N.am  176  ALA176     -0.1963
     40  CA         4.8760  -31.6740   26.1540 C.3   176  ALA176      0.1728
     41  C          4.3880  -33.1150   26.2150 C.2   176  ALA176      0.2617
     42  O          3.9610  -33.5990   27.2680 O.2   176  ALA176     -0.2715
     43  CB         3.7810  -30.7220   26.5680 C.3   176  ALA176      0.0334
     44  N          4.4630  -33.7990   25.0780 N.am  177  GLY177     -0.1940
     45  CA         4.0510  -35.1860   24.9830 C.3   177  GLY177      0.2014
     46  C          2.5610  -35.3540   24.7540 C.2   177  GLY177      0.2639
     47  O          1.9960  -36.3980   25.0930 O.2   177  GLY177     -0.2714
     48  N          1.9240  -34.3290   24.1880 N.am  178  LYS178     -0.1963
     49  CA         0.5150  -34.4080   23.8060 C.3   178  LYS178      0.1728
     50  C          0.2810  -35.6570   22.9510 C.2   178  LYS178      0.2617
     51  O         -0.5320  -36.5170   23.3040 O.2   178  LYS178     -0.2715
     52  CB         0.0820  -33.1290   23.0650 C.3   178  LYS178      0.0311
     53  CG        -0.8850  -33.3450   21.8950 C.3   178  LYS178      0.0038
     54  CD        -0.9360  -32.1340   20.9700 C.3   178  LYS178      0.0206
     55  CE        -0.2530  -32.4150   19.6370 C.3   178  LYS178      0.1093
     56  NZ        -0.9390  -31.7500   18.4830 N.3   178  LYS178     -0.1314
     57  N          1.0410  -35.7750   21.8610 N.am  179  THR179     -0.1937
     58  CA         0.8480  -36.8450   20.8780 C.3   179  THR179      0.2028
     59  C          0.9480  -38.2370   21.5020 C.2   179  THR179      0.2642
     60  O          0.2130  -39.1450   21.1150 O.2   179  THR179     -0.2714
     61  CB         1.8370  -36.6910   19.6890 C.3   179  THR179      0.1808
     62  OG1        1.7590  -35.3570   19.1680 O.3   179  THR179     -0.2208
     63  CG2        1.4250  -37.5660   18.5000 C.3   179  THR179      0.0379
     64  N          1.8410  -38.3900   22.4780 N.am  180  MET180     -0.1976
     65  CA         1.9770  -39.6550   23.2020 C.3   180  MET180      0.1605
     66  C          0.8920  -39.8230   24.2720 C.2   180  MET180      0.2287
     67  O          0.5060  -40.9460   24.6010 O.2   180  MET180     -0.2864
     68  CB         3.3760  -39.7920   23.8080 C.3   180  MET180      0.0413
     69  CG         4.3260  -40.6510   22.9760 C.3   180  MET180      0.0598
     70  SD         5.6880  -41.4050   23.9290 S.3   180  MET180     -0.1393
     71  CE         4.7730  -42.2400   25.2510 C.3   180  MET180      0.0692
     72  N         -2.6040  -32.5670   11.7070 N.3   205  GLU205     -0.1245
     73  CA        -1.4880  -33.4260   12.0940 C.3   205  GLU205      0.1567
     74  C         -0.7710  -33.9170   10.8310 C.2   205  GLU205      0.2260
     75  O         -1.3850  -34.0330    9.7640 O.2   205  GLU205     -0.2867
     76  CB        -1.9890  -34.6000   12.9490 C.3   205  GLU205      0.0388
     77  CG        -1.2660  -34.8350   14.2880 C.3   205  GLU205      0.1160
     78  CD        -0.5340  -33.6090   14.8540 C.2   205  GLU205      0.3649
     79  OE1       -1.1850  -32.7640   15.5240 O.co2 205  GLU205     -0.2457
     80  OE2        0.7100  -33.5100   14.6590 O.co2 205  GLU205     -0.2457
     81  N          2.2940  -38.8020   11.5790 N.3   209  GLU209     -0.1245
     82  CA         1.5920  -38.8740   12.8680 C.3   209  GLU209      0.1567
     83  C          0.2550  -39.5920   12.7400 C.2   209  GLU209      0.2260
     84  O         -0.1680  -40.2960   13.6580 O.2   209  GLU209     -0.2867
     85  CB         1.3550  -37.4740   13.4450 C.3   209  GLU209      0.0388
     86  CG         2.5050  -36.4920   13.2610 C.3   209  GLU209      0.1160
     87  CD         2.8730  -35.7520   14.5430 C.2   209  GLU209      0.3649
     88  OE1        1.9660  -35.4970   15.3830 O.co2 209  GLU209     -0.2457
     89  OE2        4.0800  -35.4260   14.7090 O.co2 209  GLU209     -0.2457
     90  N          8.1570  -31.2250   30.9700 N.3   341  ALA341     -0.1245
     91  CA         8.5870  -32.0280   29.8280 C.3   341  ALA341      0.1562
     92  C         10.0600  -31.8130   29.4740 C.2   341  ALA341      0.2260
     93  O         10.7170  -32.7210   28.9630 O.2   341  ALA341     -0.2867
     94  CB         7.7080  -31.7450   28.6290 C.3   341  ALA341      0.0290
     95  N         12.5420  -33.8480   31.1690 N.3   344  ARG344     -0.1245
     96  CA        12.2680  -35.2160   30.7260 C.3   344  ARG344      0.1563
     97  C         11.6750  -36.1310   31.8020 C.2   344  ARG344      0.2260
     98  O         11.9470  -37.3320   31.8360 O.2   344  ARG344     -0.2867
     99  CB        13.5060  -35.8390   30.0710 C.3   344  ARG344      0.0307
    100  CG        13.6040  -35.5670   28.5770 C.3   344  ARG344      0.0489
    101  CD        14.0460  -36.7660   27.7520 C.3   344  ARG344      0.2205
    102  NE        15.3450  -36.5380   27.1250 N.pl3 344  ARG344     -0.0865
    103  CZ        16.5180  -36.6960   27.7350 C.cat 344  ARG344      0.5346
    104  NH1       16.5780  -37.0940   29.0010 N.pl3 344  ARG344      0.1354
    105  NH2       17.6400  -36.4570   27.0730 N.pl3 344  ARG344      0.1354
    106  N          8.5480  -38.0240   32.5410 N.3   346  PHE346     -0.1228
    107  CA         7.7970  -38.5960   31.4170 C.3   346  PHE346      0.1721
    108  C          6.3720  -38.0360   31.1760 C.2   346  PHE346      0.2437
    109  O          6.1770  -37.3000   30.2060 O.2   346  PHE346     -0.2733
    110  CB         7.8360  -40.1360   31.4470 C.3   346  PHE346      0.0547
    111  CG         9.2290  -40.7180   31.2880 C.ar  346  PHE346     -0.0202
    112  CD1        9.8230  -40.8140   30.0270 C.ar  346  PHE346     -0.0042
    113  CD2        9.9450  -41.1620   32.4010 C.ar  346  PHE346     -0.0042
    114  CE1       11.1060  -41.3460   29.8750 C.ar  346  PHE346     -0.0003
    115  CE2       11.2290  -41.6940   32.2580 C.ar  346  PHE346     -0.0003
    116  CZ        11.8090  -41.7880   30.9910 C.ar  346  PHE346     -0.0000
    117  N          5.4000  -38.3610   32.0450 N.am  347  PRO347     -0.2729
    118  CA         3.9780  -38.0700   31.7770 C.3   347  PRO347      0.1401
    119  C          3.6150  -36.5870   31.7090 C.2   347  PRO347      0.2269
    120  O          2.6100  -36.2620   31.0900 O.2   347  PRO347     -0.2865
    121  CB         3.2510  -38.7330   32.9510 C.3   347  PRO347      0.0296
    122  CG         4.2430  -39.6820   33.5340 C.3   347  PRO347      0.0237
    123  CD         5.5740  -39.0370   33.3440 C.3   347  PRO347      0.0939
@<TRIPOS>BOND
     1    75    74    2
     2    74    73    1
     3    81    82    1
     4    72    73    1
     5    73    76    1
     6    83    82    1
     7    83    84    2
     8    82    85    1
     9    76    77    1
    10    86    85    1
    11    86    87    1
    12    77    78    1
    13    87    89   ar
    14    87    88   ar
    15    80    78   ar
    16    78    79   ar
    17    56    55    1
    18    63    61    1
    19    62    61    1
    20    38    37    1
    21    55    54    1
    22    61    58    1
    23    37    36    1
    24    58    59    1
    25    58    57    1
    26    54    53    1
    27    60    59    2
    28    27    28    1
    29    27    24    1
    30    28    29    1
    31    36    35    1
    32    59    64   am
    33    35    34    1
    34    57    50   am
    35    53    52    1
    36    24    25    1
    37    24    23    1
    38    64    65    1
    39    30    25   am
    40    30    31    1
    41    29    23    1
    42    50    51    2
    43    50    49    1
    44    25    26    2
    45    69    68    1
    46    69    70    1
    47    52    49    1
    48    34    31    1
    49    65    68    1
    50    65    66    1
    51    31    32    1
    52    49    48    1
    53    70    71    1
    54    48    46   am
    55    66    67    2
    56    32    39   am
    57    32    33    2
    58    46    45    1
    59    46    47    2
    60    39    40    1
    61    45    44    1
    62    44    41   am
    63    40    41    1
    64    40    43    1
    65    41    42    2
    66   105   103    1
    67   102   103    2
    68   102   101    1
    69   103   104    1
    70   101   100    1
    71   100    99    1
    72    94    91    1
    73    93    92    2
    74    92    91    1
    75    91    90    1
    76   114   112   ar
    77   114   116   ar
    78   112   111   ar
    79    99    96    1
    80   109   108    2
    81    22    20    1
    82     6     5    1
    83    21    20    1
    84    96    95    1
    85    96    97    1
    86    20    17    1
    87   116   115   ar
    88   120   119    2
    89   108   107    1
    90   108   117   am
    91   111   110    1
    92   111   113   ar
    93   107   110    1
    94   107   106    1
    95   119   118    1
    96     3     4    2
    97     3     2    1
    98   118   117    1
    99   118   121    1
   100    97    98    2
   101     5     7    1
   102     5     2    1
   103   117   123    1
   104   115   113   ar
   105    17    18    1
   106    17    16    1
   107     1     2    1
   108    18    19    2
   109    16    10   am
   110   121   122    1
   111   123   122    1
   112     8     9    1
   113    12     9    1
   114    12    13    1
   115    10     9    1
   116    10    11    2
   117    14    13    1
   118    13    15    1
