@<TRIPOS>MOLECULE
tmp/1pvyB00.pdb
 130 120 0 0 0
SMALL
GASTEIGER

@<TRIPOS>ATOM
      1  N         20.8020   14.8760   31.7220 N.3    23  ARG23      -0.1231
      2  CA        20.6540   13.8680   30.6780 C.3    23  ARG23       0.1694
      3  C         19.2650   13.8880   30.0320 C.2    23  ARG23       0.2591
      4  O         18.9130   14.8580   29.3660 O.2    23  ARG23      -0.2718
      5  CB        20.9940   12.4920   31.2490 C.3    23  ARG23       0.0321
      6  CG        21.2060   11.3980   30.2180 C.3    23  ARG23       0.0489
      7  CD        21.7810   10.1570   30.8880 C.3    23  ARG23       0.2205
      8  NE        22.0830    9.0830   29.9410 N.pl3  23  ARG23      -0.0865
      9  CZ        21.1600    8.3670   29.3110 C.cat  23  ARG23       0.5346
     10  NH1       21.5300    7.4100   28.4750 N.pl3  23  ARG23       0.1354
     11  NH2       19.8690    8.6020   29.5290 N.pl3  23  ARG23       0.1354
     12  N         18.4640   12.8410   30.2140 N.am   24  GLU24      -0.1979
     13  CA        17.1500   12.8310   29.5860 C.3    24  GLU24       0.1602
     14  C         16.1210   13.6400   30.3810 C.2    24  GLU24       0.2287
     15  O         15.1000   14.0670   29.8300 O.2    24  GLU24      -0.2864
     16  CB        16.6420   11.3980   29.4220 C.3    24  GLU24       0.0415
     17  CG        17.5230   10.4940   28.5710 C.3    24  GLU24       0.1163
     18  CD        16.9680    9.0830   28.5150 C.2    24  GLU24       0.3649
     19  OE1       16.4950    8.5870   29.5770 O.co2  24  GLU24      -0.2457
     20  OE2       17.0150    8.4770   27.4270 O.co2  24  GLU24      -0.2457
     21  N         14.2320   12.5140   32.3100 N.3    26  GLU26      -0.1245
     22  CA        13.0430   11.6880   32.3060 C.3    26  GLU26       0.1567
     23  C         12.9630   10.7050   33.4590 C.2    26  GLU26       0.2260
     24  O         13.9790   10.3230   34.0510 O.2    26  GLU26      -0.2867
     25  CB        12.9360   10.9240   30.9620 C.3    26  GLU26       0.0388
     26  CG        12.4440   11.7750   29.7700 C.3    26  GLU26       0.1160
     27  CD        12.4800   11.0440   28.4210 C.2    26  GLU26       0.3649
     28  OE1       12.1470   11.6710   27.3800 O.co2  26  GLU26      -0.2457
     29  OE2       12.8440    9.8430   28.3940 O.co2  26  GLU26      -0.2457
     30  N         11.3230    6.9340   34.5240 N.3    28  ASP28      -0.1239
     31  CA        10.8170    5.6680   34.0120 C.3    28  ASP28       0.1674
     32  C         10.1110    4.8990   35.1030 C.2    28  ASP28       0.2266
     33  O         10.5400    4.9480   36.2580 O.2    28  ASP28      -0.2867
     34  CB        11.9670    4.7670   33.5850 C.3    28  ASP28       0.1410
     35  CG        12.4890    5.0640   32.2020 C.2    28  ASP28       0.3668
     36  OD1       12.2110    6.1540   31.6610 O.co2  28  ASP28      -0.2456
     37  OD2       13.2060    4.1840   31.6920 O.co2  28  ASP28      -0.2456
     38  N          7.8660    3.6540   25.4170 N.3    51  LEU51      -0.1245
     39  CA         8.0150    2.3130   24.8930 C.3    51  LEU51       0.1561
     40  C          8.1380    1.3940   26.1010 C.2    51  LEU51       0.2260
     41  O          8.7280    1.8120   27.0810 O.2    51  LEU51      -0.2867
     42  CB         9.2860    2.2870   24.0550 C.3    51  LEU51       0.0270
     43  CG         9.2340    2.3470   22.5260 C.3    51  LEU51       0.0019
     44  CD1        8.1710    3.2560   21.9730 C.3    51  LEU51       0.0001
     45  CD2       10.6280    2.6940   22.0650 C.3    51  LEU51       0.0001
     46  N         10.0820   -1.3970   27.5590 N.3    53  CYS53      -0.1235
     47  CA        11.3190   -2.1010   27.2220 C.3    53  CYS53       0.1677
     48  C         11.8190   -2.9580   28.3530 C.2    53  CYS53       0.2270
     49  O         11.5120   -2.6990   29.5000 O.2    53  CYS53      -0.2867
     50  CB        12.4260   -1.0870   26.8900 C.3    53  CYS53       0.0956
     51  SG        12.0630    0.0810   25.5530 S.3    53  CYS53      -0.0801
     52  N         24.6430    9.3790   25.4540 N.3    95  GLU95      -0.1245
     53  CA        23.2550    9.1340   25.1100 C.3    95  GLU95       0.1567
     54  C         23.0810    8.0780   24.0360 C.2    95  GLU95       0.2260
     55  O         21.9550    7.8460   23.5790 O.2    95  GLU95      -0.2867
     56  CB        22.6260   10.4530   24.6410 C.3    95  GLU95       0.0388
     57  CG        22.5910   11.5110   25.7410 C.3    95  GLU95       0.1160
     58  CD        22.3280   12.9130   25.2260 C.2    95  GLU95       0.3649
     59  OE1       21.8830   13.0730   24.0640 O.co2  95  GLU95      -0.2457
     60  OE2       22.5680   13.8640   25.9990 O.co2  95  GLU95      -0.2457
     61  N         20.6390    2.2180   23.8450 N.3    98  SER98      -0.1202
     62  CA        20.8460    0.8970   24.4410 C.3    98  SER98       0.2020
     63  C         19.9250   -0.0950   23.6980 C.2    98  SER98       0.2618
     64  O         19.8420   -1.2640   24.0420 O.2    98  SER98      -0.2717
     65  CB        20.5120    0.9240   25.9380 C.3    98  SER98       0.2103
     66  OG        19.1620    1.3470   26.1590 O.3    98  SER98      -0.2182
     67  N         19.2460    0.3690   22.6560 N.am   99  PHE99      -0.1975
     68  CA        18.3390   -0.5210   21.9200 C.3    99  PHE99       0.1639
     69  C         18.9820   -1.8290   21.4380 C.2    99  PHE99       0.2290
     70  O         20.0860   -1.8310   20.8780 O.2    99  PHE99      -0.2864
     71  CB        17.7920    0.2000   20.6830 C.3    99  PHE99       0.0560
     72  CG        16.5930    1.0640   20.9440 C.ar   99  PHE99      -0.0200
     73  CD1       15.5010    0.5620   21.6290 C.ar   99  PHE99      -0.0042
     74  CD2       16.5340    2.3690   20.4450 C.ar   99  PHE99      -0.0042
     75  CE1       14.3580    1.3350   21.8180 C.ar   99  PHE99      -0.0003
     76  CE2       15.3870    3.1510   20.6300 C.ar   99  PHE99      -0.0003
     77  CZ        14.2960    2.6200   21.3250 C.ar   99  PHE99      -0.0000
     78  N         16.8090   -4.0410   25.6880 N.3   149  LEU149     -0.1245
     79  CA        17.8560   -3.0260   25.8030 C.3   149  LEU149      0.1561
     80  C         19.0630   -3.7560   26.3860 C.2   149  LEU149      0.2260
     81  O         18.9280   -4.6170   27.2890 O.2   149  LEU149     -0.2867
     82  CB        17.4330   -1.9320   26.7970 C.3   149  LEU149      0.0270
     83  CG        16.0850   -1.2530   26.5130 C.3   149  LEU149      0.0019
     84  CD1       15.7610   -0.3140   27.6510 C.3   149  LEU149      0.0001
     85  CD2       16.1200   -0.4890   25.1820 C.3   149  LEU149      0.0001
     86  N         27.9040    3.8800   31.4720 N.3   159  ARG159     -0.1245
     87  CA        26.7410    4.5930   30.9360 C.3   159  ARG159      0.1563
     88  C         25.7780    4.8290   32.0760 C.2   159  ARG159      0.2260
     89  O         25.6090    3.9570   32.9330 O.2   159  ARG159     -0.2867
     90  CB        26.0650    3.7920   29.8240 C.3   159  ARG159      0.0307
     91  CG        25.0200    4.5730   29.0330 C.3   159  ARG159      0.0489
     92  CD        24.6920    3.8070   27.7440 C.3   159  ARG159      0.2205
     93  NE        23.6100    4.3770   26.9340 N.pl3 159  ARG159     -0.0865
     94  CZ        22.3150    4.3940   27.2500 C.cat 159  ARG159      0.5346
     95  NH1       21.4500    4.9390   26.3970 N.pl3 159  ARG159      0.1354
     96  NH2       21.8720    3.8690   28.3970 N.pl3 159  ARG159      0.1354
     97  N         18.6810    4.9080   32.1730 N.3   162  HIS162     -0.1226
     98  CA        17.8020    4.0950   32.9880 C.3   162  HIS162      0.1752
     99  C         18.1450    2.6210   32.7710 C.2   162  HIS162      0.2596
    100  O         17.9370    1.7830   33.6530 O.2   162  HIS162     -0.2718
    101  CB        16.3360    4.3380   32.6210 C.3   162  HIS162      0.0759
    102  CG        15.8290    5.6870   33.0300 C.ar  162  HIS162      0.0818
    103  ND1       15.8400    6.7860   32.1930 N.ar  162  HIS162     -0.2268
    104  CD2       15.3390    6.1230   34.2150 C.ar  162  HIS162      0.1154
    105  CE1       15.3830    7.8400   32.8440 C.ar  162  HIS162      0.1986
    106  NE2       15.0730    7.4670   34.0750 N.ar  162  HIS162     -0.2212
    107  N         18.6590    2.3050   31.5870 N.am  163  THR163     -0.1953
    108  CA        19.0230    0.9130   31.2550 C.3   163  THR163      0.1897
    109  C         20.0020    0.3970   32.3080 C.2   163  THR163      0.2313
    110  O         19.7670   -0.6050   32.9440 O.2   163  THR163     -0.2863
    111  CB        19.6780    0.8140   29.8520 C.3   163  THR163      0.1794
    112  OG1       18.7700    1.3270   28.8680 O.3   163  THR163     -0.2208
    113  CG2       19.9880   -0.6180   29.5080 C.3   163  THR163      0.0378
    114  N         11.0260   -1.3470   31.8000 N.3   181  ILE181     -0.1245
    115  CA        10.9150    0.0820   32.0710 C.3   181  ILE181      0.1561
    116  C         10.1430    0.8020   30.9920 C.2   181  ILE181      0.2260
    117  O         10.1250    0.3700   29.8370 O.2   181  ILE181     -0.2867
    118  CB        12.3270    0.7260   32.2230 C.3   181  ILE181      0.0252
    119  CG1       13.0900    0.6280   30.8990 C.3   181  ILE181      0.0019
    120  CG2       13.1160   -0.0040   33.3420 C.3   181  ILE181      0.0019
    121  CD1       14.5200    1.1700   30.9360 C.3   181  ILE181      0.0001
    122  N          9.1440    4.9830   29.8730 N.3   183  GLU183     -0.1245
    123  CA         9.2310    6.4180   30.1420 C.3   183  GLU183      0.1567
    124  C          7.8720    7.0570   30.3790 C.2   183  GLU183      0.2260
    125  O          6.8960    6.7650   29.6920 O.2   183  GLU183     -0.2867
    126  CB         9.9130    7.1270   28.9730 C.3   183  GLU183      0.0388
    127  CG        11.0980    6.3880   28.4250 C.3   183  GLU183      0.1160
    128  CD        10.7950    5.6900   27.0990 C.2   183  GLU183      0.3649
    129  OE1        9.8890    4.8370   27.0690 O.co2 183  GLU183     -0.2457
    130  OE2       11.4780    5.9940   26.0920 O.co2 183  GLU183     -0.2457
@<TRIPOS>BOND
     1    74    76   ar
     2    74    72   ar
     3    76    77   ar
     4    71    72    1
     5    71    68    1
     6    70    69    2
     7    72    73   ar
     8    77    75   ar
     9    69    68    1
    10    73    75   ar
    11    68    67    1
    12    44    43    1
    13    45    43    1
    14    43    42    1
    15    67    63   am
    16    55    54    2
    17    63    64    2
    18    63    62    1
    19    61    62    1
    20    54    53    1
    21    42    39    1
    22    59    58   ar
    23    62    65    1
    24    56    53    1
    25    56    57    1
    26    39    38    1
    27    39    40    1
    28    53    52    1
    29    85    83    1
    30    58    57    1
    31    58    60   ar
    32    51    50    1
    33    78    79    1
    34    79    80    1
    35    79    82    1
    36    65    66    1
    37   130   128   ar
    38    40    41    2
    39    80    81    2
    40    95    94    1
    41    83    82    1
    42    83    84    1
    43    50    47    1
    44    93    94    2
    45    93    92    1
    46   129   128   ar
    47   128   127    1
    48    47    46    1
    49    47    48    1
    50    94    96    1
    51    28    27   ar
    52    20    18   ar
    53    92    91    1
    54    48    49    2
    55    29    27   ar
    56    27    26    1
    57   127   126    1
    58    10     9    1
    59    18    17    1
    60    18    19   ar
    61    17    16    1
    62   112   111    1
    63   126   123    1
    64    91    90    1
    65     9    11    1
    66     9     8    2
    67     4     3    2
    68    16    13    1
    69   113   111    1
    70    13    12    1
    71    13    14    1
    72   125   124    2
    73    26    25    1
    74    90    87    1
    75    15    14    2
    76   117   116    2
    77   111   108    1
    78   122   123    1
    79     8     7    1
    80     3    12   am
    81     3     2    1
    82   123   124    1
    83     6     7    1
    84     6     5    1
    85     2     5    1
    86     2     1    1
    87   119   121    1
    88   119   118    1
    89    87    86    1
    90    87    88    1
    91    25    22    1
    92   116   115    1
    93   108   107    1
    94   108   109    1
    95   107    99   am
    96    36    35   ar
    97    37    35   ar
    98   114   115    1
    99   115   118    1
   100    88    89    2
   101    97    98    1
   102   103   105   ar
   103   103   102   ar
   104    35    34    1
   105   118   120    1
   106    22    21    1
   107    22    23    1
   108   109   110    2
   109   101    98    1
   110   101   102    1
   111    99    98    1
   112    99   100    2
   113   105   106   ar
   114   102   104   ar
   115    23    24    2
   116    34    31    1
   117    31    30    1
   118    31    32    1
   119   106   104   ar
   120    32    33    2
