@<TRIPOS>MOLECULE
tmp/1pw1A00.pdb
 196 186 0 0 0
SMALL
GASTEIGER

@<TRIPOS>ATOM
      1  N         15.9220   -9.1930   32.4660 N.3    59  GLY59      -0.1210
      2  CA        15.8440  -10.0070   33.6880 C.3    59  GLY59       0.1956
      3  C         14.7480   -9.5650   34.6170 C.2    59  GLY59       0.2612
      4  O         13.6320   -9.2930   34.1550 O.2    59  GLY59      -0.2717
      5  N         14.9980   -9.4590   35.9170 N.am   60  SER60      -0.1952
      6  CA        13.9740   -9.2470   36.9410 C.3    60  SER60       0.1924
      7  C         13.3290   -7.8760   36.9010 C.2    60  SER60       0.2314
      8  O         12.3330   -7.6600   37.5860 O.2    60  SER60      -0.2863
      9  CB        14.3300   -9.4720   38.4140 C.3    60  SER60       0.2116
     10  OG        14.2440  -10.8940   38.5980 O.3    60  SER60      -0.2180
     11  N         13.5190  -20.4060   46.6610 N.3   112  ASP112     -0.1239
     12  CA        13.8720  -19.9960   45.3180 C.3   112  ASP112      0.1674
     13  C         14.5120  -21.1720   44.5690 C.2   112  ASP112      0.2266
     14  O         15.6850  -21.5080   44.7830 O.2   112  ASP112     -0.2867
     15  CB        14.8580  -18.7960   45.3490 C.3   112  ASP112      0.1410
     16  CG        14.9520  -18.1920   43.9540 C.2   112  ASP112      0.3668
     17  OD1       14.5400  -18.8330   42.9610 O.co2 112  ASP112     -0.2456
     18  OD2       15.4910  -17.1020   43.8240 O.co2 112  ASP112     -0.2456
     19  N         15.6850  -21.4030   41.7330 N.3   114  THR114     -0.1218
     20  CA        16.8860  -21.1520   40.9040 C.3   114  THR114      0.1862
     21  C         18.1610  -21.3590   41.6980 C.2   114  THR114      0.2287
     22  O         19.2010  -21.5830   41.0540 O.2   114  THR114     -0.2866
     23  CB        16.9060  -19.7500   40.2660 C.3   114  THR114      0.1770
     24  OG1       16.8400  -18.7900   41.3000 O.3   114  THR114     -0.2211
     25  CG2       15.7210  -19.5450   39.3340 C.3   114  THR114      0.0375
     26  N         21.3140  -23.0240   39.4490 N.3   118  PHE118     -0.1227
     27  CA        22.5040  -22.2920   39.0780 C.3   118  PHE118      0.1736
     28  C         23.5810  -22.3610   40.1520 C.2   118  PHE118      0.2592
     29  O         24.4560  -21.4690   40.2020 O.2   118  PHE118     -0.2718
     30  CB        22.1600  -20.8170   38.6990 C.3   118  PHE118      0.0547
     31  CG        21.0490  -20.7250   37.6340 C.ar  118  PHE118     -0.0202
     32  CD1       21.1180  -21.4350   36.4400 C.ar  118  PHE118     -0.0042
     33  CD2       19.9450  -19.9210   37.8140 C.ar  118  PHE118     -0.0042
     34  CE1       20.1030  -21.3400   35.4860 C.ar  118  PHE118     -0.0003
     35  CE2       18.9070  -19.8350   36.8750 C.ar  118  PHE118     -0.0003
     36  CZ        18.9580  -20.5550   35.6970 C.ar  118  PHE118     -0.0000
     37  N         23.6150  -23.4190   40.9450 N.am  119  ALA119     -0.2033
     38  CA        24.7580  -23.6510   41.8570 C.3   119  ALA119      0.1283
     39  C         26.0840  -23.5990   41.1290 C.3   119  ALA119      0.2036
     40  O         27.1140  -23.0780   41.6980 O.3   119  ALA119     -0.2185
     41  CB        24.5690  -24.9720   42.5850 C.3   119  ALA119      0.0262
     42  N         27.4840  -21.9880   37.5650 N.3   121  THR121     -0.1218
     43  CA        26.9480  -20.9980   36.6150 C.3   121  THR121      0.1862
     44  C         26.7820  -21.5050   35.2080 C.2   121  THR121      0.2287
     45  O         25.6550  -21.4780   34.6460 O.2   121  THR121     -0.2866
     46  CB        27.8920  -19.7740   36.6520 C.3   121  THR121      0.1770
     47  OG1       27.8420  -19.2070   37.9910 O.3   121  THR121     -0.2211
     48  CG2       27.4000  -18.7160   35.6550 C.3   121  THR121      0.0375
     49  N         14.3790  -12.8910   48.8090 N.3   157  TYR157     -0.1241
     50  CA        14.1010  -12.9140   47.3620 C.3   157  TYR157      0.1605
     51  C         13.7780  -14.3270   46.8930 C.2   157  TYR157      0.2264
     52  O         14.4960  -15.2940   47.2090 O.2   157  TYR157     -0.2867
     53  CB        15.3370  -12.3680   46.5890 C.3   157  TYR157      0.0534
     54  CG        15.0370  -12.4790   45.0850 C.ar  157  TYR157     -0.0201
     55  CD1       14.3790  -11.3950   44.4890 C.ar  157  TYR157     -0.0009
     56  CD2       15.3310  -13.5110   44.2130 C.ar  157  TYR157     -0.0009
     57  CE1       14.0300  -11.3290   43.1670 C.ar  157  TYR157      0.0417
     58  CE2       14.9750  -13.4980   42.8880 C.ar  157  TYR157      0.0417
     59  CZ        14.3320  -12.4030   42.3340 C.ar  157  TYR157      0.1957
     60  OH        13.9860  -12.3900   41.0180 O.3   157  TYR157     -0.2866
     61  N         12.4830  -16.1220   42.9960 N.3   159  ASN159     -0.1240
     62  CA        11.8140  -16.1300   41.7020 C.3   159  ASN159      0.1653
     63  C         10.4350  -16.7970   41.7820 C.2   159  ASN159      0.2266
     64  O          9.5240  -16.3910   41.0060 O.2   159  ASN159     -0.2867
     65  CB        12.6540  -16.8130   40.6500 C.3   159  ASN159      0.1155
     66  CG        13.7710  -15.9280   40.1800 C.2   159  ASN159      0.2627
     67  OD1       13.5070  -14.8470   39.6800 O.2   159  ASN159     -0.2716
     68  ND2       15.0160  -16.3660   40.3720 N.am  159  ASN159     -0.0877
     69  N         28.1790  -14.7290   29.4030 N.3   212  LEU212     -0.1245
     70  CA        28.1660  -15.2640   30.7550 C.3   212  LEU212      0.1561
     71  C         29.5960  -15.4980   31.2200 C.2   212  LEU212      0.2260
     72  O         30.3670  -16.2020   30.5250 O.2   212  LEU212     -0.2867
     73  CB        27.3470  -16.5640   30.7770 C.3   212  LEU212      0.0270
     74  CG        27.1410  -17.2860   32.0670 C.3   212  LEU212      0.0019
     75  CD1       26.4060  -16.3700   33.0680 C.3   212  LEU212      0.0001
     76  CD2       26.3170  -18.5550   31.8330 C.3   212  LEU212      0.0001
     77  N         32.4880  -19.5050   36.4080 N.3   215  ASP215     -0.1239
     78  CA        32.9330  -19.4480   37.8050 C.3   215  ASP215      0.1674
     79  C         34.4370  -19.5280   37.9510 C.2   215  ASP215      0.2266
     80  O         34.9930  -19.0480   38.9500 O.2   215  ASP215     -0.2867
     81  CB        32.3050  -20.6310   38.5900 C.3   215  ASP215      0.1410
     82  CG        30.8130  -20.4500   38.7460 C.2   215  ASP215      0.3668
     83  OD1       30.3030  -19.2930   38.7690 O.co2 215  ASP215     -0.2456
     84  OD2       30.1000  -21.4870   38.8800 O.co2 215  ASP215     -0.2456
     85  N         12.8720  -20.6110   32.6570 N.3   231  TRP231     -0.1241
     86  CA        13.0280  -20.7420   34.1120 C.3   231  TRP231      0.1605
     87  C         12.5690  -19.5030   34.8620 C.2   231  TRP231      0.2264
     88  O         12.4840  -19.5710   36.0950 O.2   231  TRP231     -0.2867
     89  CB        14.5030  -21.0380   34.4630 C.3   231  TRP231      0.0550
     90  CG        15.4540  -19.9960   33.9420 C.ar  231  TRP231      0.0003
     91  CD1       16.1030  -20.0430   32.7410 C.ar  231  TRP231      0.0946
     92  CD2       15.8320  -18.7950   34.6100 C.ar  231  TRP231      0.0152
     93  NE1       16.8780  -18.9040   32.6140 N.ar  231  TRP231     -0.2442
     94  CE2       16.7480  -18.1230   33.7340 C.ar  231  TRP231      0.0810
     95  CE3       15.4950  -18.2420   35.8650 C.ar  231  TRP231      0.0012
     96  CZ2       17.3010  -16.9080   34.1150 C.ar  231  TRP231      0.0191
     97  CZ3       16.0570  -17.0220   36.2230 C.ar  231  TRP231      0.0001
     98  CH2       16.9600  -16.3700   35.3330 C.ar  231  TRP231      0.0015
     99  N          8.8260  -13.6430   35.9240 N.3   235  ALA235     -0.1231
    100  CA         9.8400  -13.1260   36.8390 C.3   235  ALA235      0.1697
    101  C         11.0350  -12.5420   36.0750 C.2   235  ALA235      0.2631
    102  O         11.8820  -11.8810   36.6840 O.2   235  ALA235     -0.2714
    103  CB        10.3520  -14.2200   37.7940 C.3   235  ALA235      0.0304
    104  N         11.1940  -12.8040   34.7540 N.am  236  GLY236     -0.1732
    105  CA        12.4310  -12.3750   34.1020 C.2   236  GLY236      0.1340
    106  C         12.5800  -12.3990   32.6060 C.2   236  GLY236      0.2521
    107  O         13.7170  -12.1030   32.1800 O.2   236  GLY236     -0.2816
    108  N         11.8140   -1.7120   43.5320 N.3   283  ARG283     -0.1245
    109  CA        12.9240   -1.4900   44.4520 C.3   283  ARG283      0.1563
    110  C         13.0910    0.0260   44.6840 C.2   283  ARG283      0.2260
    111  O         12.9060    0.8500   43.7670 O.2   283  ARG283     -0.2867
    112  CB        14.2060   -2.0840   43.8760 C.3   283  ARG283      0.0307
    113  CG        14.2490   -3.6240   43.6460 C.3   283  ARG283      0.0489
    114  CD        15.7040   -4.1550   43.4660 C.3   283  ARG283      0.2205
    115  NE        15.7410   -5.5960   43.2840 N.pl3 283  ARG283     -0.0865
    116  CZ        15.6530   -6.5020   44.2450 C.cat 283  ARG283      0.5346
    117  NH1       15.5590   -6.0980   45.5210 N.pl3 283  ARG283      0.1354
    118  NH2       15.6860   -7.8160   43.9730 N.pl3 283  ARG283      0.1354
    119  N         14.0070   -1.0370   39.1860 N.3   296  HIS296     -0.1226
    120  CA        14.3620   -2.4270   39.4260 C.3   296  HIS296      0.1752
    121  C         15.7000   -2.6860   38.7690 C.2   296  HIS296      0.2597
    122  O         16.1140   -2.0980   37.7660 O.2   296  HIS296     -0.2718
    123  CB        13.3040   -3.4130   38.8510 C.3   296  HIS296      0.0759
    124  CG        13.0720   -4.5960   39.7340 C.ar  296  HIS296      0.0818
    125  ND1       13.9100   -5.6870   39.8740 N.ar  296  HIS296     -0.2268
    126  CD2       12.0270   -4.8790   40.5620 C.ar  296  HIS296      0.1154
    127  CE1       13.3900   -6.5570   40.7470 C.ar  296  HIS296      0.1986
    128  NE2       12.2330   -6.0740   41.1740 N.ar  296  HIS296     -0.2212
    129  N         16.3940   -3.7060   39.3110 N.am  297  THR297     -0.1939
    130  CA        17.5740   -4.3060   38.7540 C.3   297  THR297      0.2028
    131  C         17.2540   -5.6300   38.0380 C.2   297  THR297      0.2643
    132  O         16.2080   -6.2740   38.3730 O.2   297  THR297     -0.2714
    133  CB        18.5690   -4.6270   39.8820 C.3   297  THR297      0.1808
    134  OG1       17.8560   -5.2870   40.9530 O.3   297  THR297     -0.2208
    135  CG2       19.1890   -3.3270   40.4170 C.3   297  THR297      0.0379
    136  N         18.0960   -6.0500   37.1250 N.am  298  GLY298     -0.1939
    137  CA        17.9200   -7.3720   36.5320 C.3   298  GLY298      0.2014
    138  C         19.2710   -8.0640   36.3540 C.2   298  GLY298      0.2640
    139  O         20.2580   -7.4260   35.9480 O.2   298  GLY298     -0.2714
    140  N         19.2460   -9.3750   36.5600 N.am  299  THR299     -0.1936
    141  CA        20.3130  -10.2950   36.2110 C.3   299  THR299      0.2028
    142  C         19.7390  -11.4530   35.4320 C.2   299  THR299      0.2642
    143  O         18.9860  -12.2340   36.0110 O.2   299  THR299     -0.2714
    144  CB        21.0680  -10.8300   37.4300 C.3   299  THR299      0.1808
    145  OG1       21.6530   -9.7350   38.1380 O.3   299  THR299     -0.2208
    146  CG2       22.2130  -11.7740   37.0280 C.3   299  THR299      0.0379
    147  N         20.1100  -11.6290   34.1790 N.am  300  VAL300     -0.1963
    148  CA        19.8030  -12.8320   33.4050 C.3   300  VAL300      0.1727
    149  C         21.1280  -13.1890   32.7240 C.2   300  VAL300      0.2616
    150  O         21.9830  -12.2860   32.6190 O.2   300  VAL300     -0.2715
    151  CB        18.5690  -12.6130   32.5040 C.3   300  VAL300      0.0290
    152  CG1       18.7600  -11.4290   31.5590 C.3   300  VAL300      0.0023
    153  CG2       18.2060  -13.8760   31.7240 C.3   300  VAL300      0.0023
    154  N         21.3690  -14.4480   32.3370 N.am  301  GLN301     -0.1977
    155  CA        22.7320  -14.7880   31.9150 C.3   301  GLN301      0.1601
    156  C         23.2300  -13.8950   30.7810 C.2   301  GLN301      0.2287
    157  O         22.6350  -13.8410   29.6820 O.2   301  GLN301     -0.2864
    158  CB        22.7520  -16.2680   31.4860 C.3   301  GLN301      0.0394
    159  CG        22.6640  -17.2520   32.6480 C.3   301  GLN301      0.0908
    160  CD        21.2770  -17.6020   33.0760 C.2   301  GLN301      0.2608
    161  OE1       20.2890  -17.0400   32.5680 O.2   301  GLN301     -0.2717
    162  NE2       21.1570  -18.5450   34.0290 N.am  301  GLN301     -0.0878
    163  N         23.3610   -7.5330   32.8480 N.3   304  TYR304     -0.1241
    164  CA        23.0480   -6.7880   34.0750 C.3   304  TYR304      0.1605
    165  C         22.3370   -5.4840   33.7450 C.2   304  TYR304      0.2264
    166  O         22.9100   -4.6650   32.9860 O.2   304  TYR304     -0.2867
    167  CB        24.2910   -6.4710   34.8610 C.3   304  TYR304      0.0534
    168  CG        24.9850   -7.5390   35.6690 C.ar  304  TYR304     -0.0201
    169  CD1       24.3030   -8.4170   36.5010 C.ar  304  TYR304     -0.0009
    170  CD2       26.3910   -7.6240   35.6520 C.ar  304  TYR304     -0.0009
    171  CE1       24.9490   -9.3880   37.2670 C.ar  304  TYR304      0.0417
    172  CE2       27.0620   -8.5510   36.4270 C.ar  304  TYR304      0.0417
    173  CZ        26.3470   -9.4380   37.2150 C.ar  304  TYR304      0.1957
    174  OH        27.0250  -10.3180   38.0020 O.3   304  TYR304     -0.2866
    175  N         27.3020  -11.2100   32.8760 N.3   324  SER324     -0.1202
    176  CA        26.8110  -11.4730   34.2190 C.3   324  SER324      0.2020
    177  C         27.7650  -12.4270   34.9340 C.2   324  SER324      0.2618
    178  O         28.8260  -12.7750   34.3910 O.2   324  SER324     -0.2717
    179  CB        25.3810  -11.9950   34.1700 C.3   324  SER324      0.2103
    180  OG        25.3600  -13.2980   33.6340 O.3   324  SER324     -0.2182
    181  N         27.3860  -12.8290   36.1630 N.am  325  ASN325     -0.1974
    182  CA        28.2820  -13.5930   37.0560 C.3   325  ASN325      0.1688
    183  C         29.6240  -12.8870   37.1930 C.2   325  ASN325      0.2292
    184  O         30.6520  -13.5210   37.1590 O.2   325  ASN325     -0.2864
    185  CB        28.4620  -15.0380   36.6340 C.3   325  ASN325      0.1181
    186  CG        29.1000  -15.9220   37.7190 C.2   325  ASN325      0.2629
    187  OD1       28.7510  -15.7890   38.9200 O.2   325  ASN325     -0.2716
    188  ND2       30.0190  -16.7690   37.3100 N.am  325  ASN325     -0.0877
    189  N         28.7470   -5.7750   38.2420 N.3   330  LEU330     -0.1245
    190  CA        27.4340   -5.4160   38.8120 C.3   330  LEU330      0.1561
    191  C         27.5590   -4.2170   39.7350 C.2   330  LEU330      0.2260
    192  O         26.7550   -3.2630   39.6640 O.2   330  LEU330     -0.2867
    193  CB        26.8350   -6.6200   39.5330 C.3   330  LEU330      0.0270
    194  CG        25.5270   -6.3650   40.3090 C.3   330  LEU330      0.0019
    195  CD1       24.4230   -6.0270   39.3080 C.3   330  LEU330      0.0001
    196  CD2       25.1650   -7.6110   41.0930 C.3   330  LEU330      0.0001
@<TRIPOS>BOND
     1    69    70    1
     2   157   156    2
     3    72    71    2
     4    70    73    1
     5    70    71    1
     6    73    74    1
     7   156   155    1
     8   158   155    1
     9   158   159    1
    10   152   151    1
    11   153   151    1
    12    76    74    1
    13   155   154    1
    14    74    75    1
    15   107   106    2
    16   154   149   am
    17     1     2    1
    18   151   148    1
    19   161   160    2
    20   106   105    1
    21    93    91   ar
    22    93    94   ar
    23   150   149    2
    24   159   160    1
    25    85    86    1
    26   149   148    1
    27    91    90   ar
    28   163   164    1
    29   175   176    1
    30   166   165    2
    31   160   162   am
    32   148   147    1
    33   180   179    1
    34     2     3    1
    35    94    96   ar
    36    94    92   ar
    37   165   164    1
    38    90    89    1
    39    90    92   ar
    40   164   167    1
    41   105   104    2
    42    86    89    1
    43    86    87    1
    44    96    98   ar
    45     4     3    2
    46   179   176    1
    47   147   142   am
    48   176   177    1
    49   178   177    2
    50    92    95   ar
    51     3     5   am
    52    45    44    2
    53   104   101    1
    54   167   168    1
    55    87    88    2
    56   177   181   am
    57    44    43    1
    58    98    97   ar
    59   142   143    2
    60   142   141    1
    61    34    36   ar
    62    34    32   ar
    63   170   168   ar
    64   170   172   ar
    65    48    46    1
    66   168   169   ar
    67    36    35   ar
    68    95    97   ar
    69     5     6    1
    70    99   100    1
    71   139   138    2
    72   101   102    2
    73   101   100    1
    74   181   182    1
    75   141   140    1
    76   141   144    1
    77   138   137    1
    78   138   140   am
    79    77    78    1
    80   172   173   ar
    81    32    31   ar
    82   169   171   ar
    83   137   136    1
    84    43    46    1
    85    43    42    1
    86   185   182    1
    87   185   186    1
    88    46    47    1
    89   100   103    1
    90    35    33   ar
    91     7     6    1
    92     7     8    2
    93     6     9    1
    94   146   144    1
    95   182   183    1
    96   136   131   am
    97   184   183    2
    98   173   171   ar
    99   173   174    1
   100   188   186   am
   101   144   145    1
   102    31    33   ar
   103    31    30    1
   104   186   187    2
   105   122   121    2
   106    78    79    1
   107    78    81    1
   108    79    80    2
   109   131   132    2
   110   131   130    1
   111   189   190    1
   112     9    10    1
   113    81    82    1
   114    30    27    1
   115    82    83   ar
   116    82    84   ar
   117   130   129    1
   118   130   133    1
   119   121   129   am
   120   121   120    1
   121   190   193    1
   122   190   191    1
   123   123   120    1
   124   123   124    1
   125    27    26    1
   126    27    28    1
   127   119   120    1
   128   195   194    1
   129    25    23    1
   130   193   194    1
   131   192   191    2
   132    67    66    2
   133   124   125   ar
   134   124   126   ar
   135   125   127   ar
   136   133   135    1
   137   133   134    1
   138    28    29    2
   139    28    37   am
   140    66    68   am
   141    66    65    1
   142    23    20    1
   143    23    24    1
   144   194   196    1
   145   126   128   ar
   146    65    62    1
   147   127   128   ar
   148    20    21    1
   149    20    19    1
   150    37    38    1
   151    64    63    2
   152    60    59    1
   153    22    21    2
   154    39    40    1
   155    39    38    1
   156    62    63    1
   157    62    61    1
   158    38    41    1
   159    59    58   ar
   160    59    57   ar
   161    58    56   ar
   162    17    16   ar
   163    57    55   ar
   164   115   114    1
   165   115   116    2
   166   114   113    1
   167   108   109    1
   168   113   112    1
   169   111   110    2
   170    18    16   ar
   171   112   109    1
   172    16    15    1
   173   118   116    1
   174    56    54   ar
   175   116   117    1
   176   109   110    1
   177    55    54   ar
   178    13    14    2
   179    13    12    1
   180    54    53    1
   181    12    15    1
   182    12    11    1
   183    53    50    1
   184    51    52    2
   185    51    50    1
   186    50    49    1
