@<TRIPOS>MOLECULE
tmp/1pw6B00.pdb
 130 126 0 0 0
SMALL
GASTEIGER

@<TRIPOS>ATOM
      1  N         83.3660   19.3300   -8.0200 N.3    31  LYS31      -0.1245
      2  CA        83.5570   19.8910   -6.6910 C.3    31  LYS31       0.1561
      3  C         84.8580   20.6910   -6.6030 C.2    31  LYS31       0.2260
      4  O         85.4620   20.7900   -5.5350 O.2    31  LYS31      -0.2867
      5  CB        83.5240   18.7830   -5.6290 C.3    31  LYS31       0.0271
      6  CG        82.6650   17.5700   -5.9890 C.3    31  LYS31       0.0035
      7  CD        81.4060   17.4850   -5.1360 C.3    31  LYS31       0.0206
      8  CE        81.0020   16.0340   -4.9090 C.3    31  LYS31       0.1093
      9  NZ        79.5250   15.8720   -4.7620 N.3    31  LYS31      -0.1314
     10  N         84.5920   24.0490   -4.1790 N.3    34  ARG34      -0.1231
     11  CA        84.4940   23.7250   -2.7570 C.3    34  ARG34       0.1694
     12  C         85.7540   23.0460   -2.2220 C.2    34  ARG34       0.2591
     13  O         86.1590   23.2890   -1.0880 O.2    34  ARG34      -0.2718
     14  CB        83.2700   22.8420   -2.4930 C.3    34  ARG34       0.0321
     15  CG        81.9300   23.5050   -2.7870 C.3    34  ARG34       0.0489
     16  CD        80.8250   22.5210   -3.1620 C.3    34  ARG34       0.2205
     17  NE        79.6400   23.1950   -3.6890 N.pl3  34  ARG34      -0.0865
     18  CZ        78.6620   23.6960   -2.9410 C.cat  34  ARG34       0.5346
     19  NH1       78.7130   23.6030   -1.6170 N.pl3  34  ARG34       0.1354
     20  NH2       77.6270   24.2920   -3.5170 N.pl3  34  ARG34       0.1354
     21  N         86.3640   22.1970   -3.0450 N.am   35  MET35      -0.1979
     22  CA        87.5810   21.4810   -2.6760 C.3    35  MET35       0.1605
     23  C         88.7130   22.4470   -2.3320 C.2    35  MET35       0.2287
     24  O         89.5020   22.1960   -1.4170 O.2    35  MET35      -0.2864
     25  CB        88.0030   20.5520   -3.8160 C.3    35  MET35       0.0413
     26  CG        89.2310   19.6980   -3.5430 C.3    35  MET35       0.0598
     27  SD        89.7400   18.7670   -5.0010 S.3    35  MET35      -0.1393
     28  CE        90.2300   20.0960   -6.0990 C.3    35  MET35       0.0692
     29  N         88.5130   25.2850   -0.9520 N.3    37  THR37      -0.1203
     30  CA        88.2450   26.0020    0.3010 C.3    37  THR37       0.1994
     31  C         88.8890   25.3280    1.5090 C.2    37  THR37       0.2618
     32  O         89.0690   25.9630    2.5510 O.2    37  THR37      -0.2717
     33  CB        86.7250   26.1530    0.5630 C.3    37  THR37       0.1784
     34  OG1       86.1540   24.8680    0.8480 O.3    37  THR37      -0.2211
     35  CG2       85.9780   26.6300   -0.6840 C.3    37  THR37       0.0376
     36  N         89.2100   24.0420    1.3700 N.am   38  PHE38      -0.1961
     37  CA        89.8360   23.2640    2.4370 C.3    38  PHE38       0.1771
     38  C         91.2630   23.7480    2.6790 C.2    38  PHE38       0.2619
     39  O         92.0480   23.8800    1.7380 O.2    38  PHE38      -0.2715
     40  CB        89.8320   21.7730    2.0830 C.3    38  PHE38       0.0574
     41  CG        89.8290   20.8630    3.2780 C.ar   38  PHE38      -0.0200
     42  CD1       88.6390   20.3200    3.7510 C.ar   38  PHE38      -0.0042
     43  CD2       91.0170   20.5440    3.9320 C.ar   38  PHE38      -0.0042
     44  CE1       88.6290   19.4750    4.8630 C.ar   38  PHE38      -0.0003
     45  CE2       91.0170   19.7000    5.0440 C.ar   38  PHE38      -0.0003
     46  CZ        89.8210   19.1650    5.5100 C.ar   38  PHE38      -0.0000
     47  N         91.5920   24.0090    3.9410 N.am   39  LYS39      -0.1963
     48  CA        92.8990   24.5600    4.3050 C.3    39  LYS39       0.1728
     49  C         93.8820   23.4800    4.7630 C.2    39  LYS39       0.2616
     50  O         93.5640   22.6620    5.6270 O.2    39  LYS39      -0.2715
     51  CB        92.7470   25.6390    5.3770 C.3    39  LYS39       0.0311
     52  CG        91.7860   26.7530    4.9960 C.3    39  LYS39       0.0038
     53  CD        91.9450   27.9660    5.8990 C.3    39  LYS39       0.0206
     54  CE        91.0670   29.1170    5.4290 C.3    39  LYS39       0.1093
     55  NZ        91.8570   30.2050    4.7830 N.3    39  LYS39      -0.1314
     56  N         95.0760   23.4940    4.1760 N.am   40  PHE40      -0.1960
     57  CA        96.0900   22.4800    4.4410 C.3    40  PHE40       0.1771
     58  C         97.3050   23.0550    5.1450 C.2    40  PHE40       0.2619
     59  O         97.7090   24.1880    4.8820 O.2    40  PHE40      -0.2715
     60  CB        96.5330   21.8200    3.1380 C.3    40  PHE40       0.0574
     61  CG        95.6360   20.7120    2.6900 C.ar   40  PHE40      -0.0200
     62  CD1       95.8260   19.4160    3.1590 C.ar   40  PHE40      -0.0042
     63  CD2       94.5950   20.9600    1.8030 C.ar   40  PHE40      -0.0042
     64  CE1       94.9920   18.3820    2.7520 C.ar   40  PHE40      -0.0003
     65  CE2       93.7560   19.9320    1.3890 C.ar   40  PHE40      -0.0003
     66  CZ        93.9600   18.6390    1.8640 C.ar   40  PHE40      -0.0000
     67  N         97.8930   22.2590    6.0300 N.am   41  TYR41      -0.1974
     68  CA        99.1060   22.6560    6.7250 C.3    41  TYR41       0.1639
     69  C        100.3360   22.4630    5.8380 C.2    41  TYR41       0.2290
     70  O        100.5990   21.3630    5.3360 O.2    41  TYR41      -0.2864
     71  CB        99.2540   21.8760    8.0300 C.3    41  TYR41       0.0560
     72  CG        98.4750   22.4430    9.1990 C.ar   41  TYR41      -0.0198
     73  CD1       98.5860   23.7910    9.5600 C.ar   41  TYR41      -0.0009
     74  CD2       97.6330   21.6280    9.9560 C.ar   41  TYR41      -0.0009
     75  CE1       97.8690   24.3110   10.6400 C.ar   41  TYR41       0.0417
     76  CE2       96.9140   22.1370   11.0380 C.ar   41  TYR41       0.0417
     77  CZ        97.0390   23.4740   11.3760 C.ar   41  TYR41       0.1957
     78  OH        96.3280   23.9720   12.4460 O.3    41  TYR41      -0.2866
     79  N         99.4140   15.2820    7.5830 N.3    58  GLU58      -0.1245
     80  CA        98.3430   15.8710    6.7870 C.3    58  GLU58       0.1567
     81  C         97.6620   14.8650    5.8470 C.2    58  GLU58       0.2260
     82  O         96.8540   15.2460    4.9970 O.2    58  GLU58      -0.2867
     83  CB        98.8610   17.0870    6.0140 C.3    58  GLU58       0.0388
     84  CG        98.9270   18.3600    6.8420 C.3    58  GLU58       0.1160
     85  CD        97.5540   18.8870    7.2300 C.2    58  GLU58       0.3649
     86  OE1       96.9980   19.7150    6.4830 O.co2  58  GLU58      -0.2457
     87  OE2       97.0360   18.4780    8.2880 O.co2  58  GLU58      -0.2457
     88  N         93.5390   14.7070    6.6180 N.3    61  PRO61      -0.2116
     89  CA        92.7860   15.7170    5.8580 C.3    61  PRO61       0.1372
     90  C         92.7680   15.4370    4.3540 C.2    61  PRO61       0.2244
     91  O         91.7400   15.6720    3.7110 O.2    61  PRO61      -0.2868
     92  CB        93.5520   17.0150    6.1390 C.3    61  PRO61       0.0268
     93  CG        94.2520   16.7740    7.4040 C.3    61  PRO61       0.0207
     94  CD        94.6150   15.3280    7.4120 C.3    61  PRO61       0.0892
     95  N         90.1980   12.8960    3.6920 N.3    64  GLU64      -0.1231
     96  CA        88.8860   13.5150    3.8800 C.3    64  GLU64       0.1699
     97  C         88.4490   14.2660    2.6240 C.2    64  GLU64       0.2592
     98  O         87.2960   14.1620    2.1960 O.2    64  GLU64      -0.2718
     99  CB        88.9040   14.4600    5.0830 C.3    64  GLU64       0.0402
    100  CG        87.5400   14.6990    5.7130 C.3    64  GLU64       0.1161
    101  CD        87.5150   15.9150    6.6210 C.2    64  GLU64       0.3649
    102  OE1       88.4230   16.0430    7.4730 O.co2  64  GLU64      -0.2457
    103  OE2       86.5850   16.7420    6.4850 O.co2  64  GLU64      -0.2457
    104  N         89.3850   15.0100    2.0390 N.am   65  VAL65      -0.1980
    105  CA        89.1330   15.7830    0.8290 C.3    65  VAL65       0.1595
    106  C         88.9160   14.8530   -0.3620 C.2    65  VAL65       0.2287
    107  O         87.9950   15.0620   -1.1500 O.2    65  VAL65      -0.2864
    108  CB        90.2860   16.7770    0.5440 C.3    65  VAL65       0.0276
    109  CG1       90.0650   17.5090   -0.7660 C.3    65  VAL65       0.0022
    110  CG2       90.4150   17.7740    1.6810 C.3    65  VAL65       0.0022
    111  N         85.5420   13.4210   -0.2470 N.3    68  LEU68      -0.1231
    112  CA        84.5430   14.4480   -0.5520 C.3    68  LEU68       0.1693
    113  C         84.5610   14.8670   -2.0260 C.2    68  LEU68       0.2591
    114  O         83.5690   15.4010   -2.5360 O.2    68  LEU68      -0.2718
    115  CB        84.7170   15.6750    0.3540 C.3    68  LEU68       0.0284
    116  CG        84.2090   15.5940    1.7990 C.3    68  LEU68       0.0019
    117  CD1       84.9070   16.6220    2.6740 C.3    68  LEU68       0.0001
    118  CD2       82.7000   15.7710    1.8780 C.3    68  LEU68       0.0001
    119  N         85.6860   14.6230   -2.6980 N.am   69  ALA69      -0.1980
    120  CA        85.8540   14.9750   -4.1090 C.3    69  ALA69       0.1597
    121  C         85.5390   13.8140   -5.0560 C.2    69  ALA69       0.2287
    122  O         85.8130   13.8900   -6.2560 O.2    69  ALA69      -0.2864
    123  CB        87.2600   15.5040   -4.3610 C.3    69  ALA69       0.0319
    124  N         98.0760   28.7530    5.8050 N.3   107  THR107     -0.1218
    125  CA        97.6140   27.4970    5.2130 C.3   107  THR107      0.1862
    126  C         97.5380   27.6200    3.6840 C.2   107  THR107      0.2287
    127  O         97.8420   28.6780    3.1240 O.2   107  THR107     -0.2866
    128  CB        96.2550   27.0530    5.8140 C.3   107  THR107      0.1770
    129  OG1       95.2730   28.0770    5.6230 O.3   107  THR107     -0.2211
    130  CG2       96.3450   26.9230    7.3260 C.3   107  THR107      0.0375
@<TRIPOS>BOND
     1     1     2    1
     2     2     3    1
     3     2     5    1
     4     3     4    2
     5   122   121    2
     6    28    27    1
     7     6     5    1
     8     6     7    1
     9     7     8    1
    10   121   120    1
    11    27    26    1
    12     8     9    1
    13   123   120    1
    14    10    11    1
    15   120   119    1
    16    25    26    1
    17    25    22    1
    18    17    16    1
    19    17    18    2
    20    20    18    1
    21    16    15    1
    22    21    22    1
    23    21    12   am
    24    18    19    1
    25    15    14    1
    26    11    14    1
    27    11    12    1
    28   119   113   am
    29    22    23    1
    30   114   113    2
    31    23    24    2
    32    12    13    2
    33   113   112    1
    34   107   106    2
    35    29    30    1
    36   109   108    1
    37    35    33    1
    38   112   111    1
    39   112   115    1
    40   106   105    1
    41    30    33    1
    42    30    31    1
    43   115   116    1
    44   108   105    1
    45   108   110    1
    46    33    34    1
    47   105   104    1
    48    36    31   am
    49    36    37    1
    50    65    63   ar
    51    65    66   ar
    52    31    32    2
    53    39    38    2
    54   116   118    1
    55   116   117    1
    56    63    61   ar
    57    66    64   ar
    58   104    97   am
    59    40    37    1
    60    40    41    1
    61    98    97    2
    62    37    38    1
    63    97    96    1
    64    38    47   am
    65    61    60    1
    66    61    62   ar
    67    64    62   ar
    68   127   126    2
    69    60    57    1
    70    41    42   ar
    71    41    43   ar
    72   126   125    1
    73    95    96    1
    74    91    90    2
    75    42    44   ar
    76    96    99    1
    77    43    45   ar
    78    47    48    1
    79    56    57    1
    80    56    49   am
    81    48    49    1
    82    48    51    1
    83    90    89    1
    84    57    58    1
    85    49    50    2
    86    55    54    1
    87    44    46   ar
    88    59    58    2
    89    52    51    1
    90    52    53    1
    91    82    81    2
    92    45    46   ar
    93    99   100    1
    94    58    67   am
    95   125   124    1
    96   125   128    1
    97    70    69    2
    98    54    53    1
    99   129   128    1
   100   100   101    1
   101   128   130    1
   102    69    68    1
   103    81    80    1
   104    89    92    1
   105    89    88    1
   106    83    80    1
   107    83    84    1
   108    67    68    1
   109    92    93    1
   110    86    85   ar
   111   103   101   ar
   112    88    94    1
   113   101   102   ar
   114    68    71    1
   115    80    79    1
   116    84    85    1
   117    85    87   ar
   118    93    94    1
   119    71    72    1
   120    72    73   ar
   121    72    74   ar
   122    73    75   ar
   123    74    76   ar
   124    75    77   ar
   125    76    77   ar
   126    77    78    1
