@<TRIPOS>MOLECULE
tmp/1pw8A00.pdb
 188 175 0 0 0
SMALL
GASTEIGER

@<TRIPOS>ATOM
      1  N         15.8770   -9.0030   31.6740 N.3    59  GLY59      -0.1210
      2  CA        15.8270   -9.8230   32.8550 C.3    59  GLY59       0.1956
      3  C         14.7720   -9.4310   33.8180 C.2    59  GLY59       0.2612
      4  O         13.6010   -9.1840   33.4190 O.2    59  GLY59      -0.2717
      5  N         15.0740   -9.3610   35.1050 N.am   60  SER60      -0.1952
      6  CA        14.1120   -9.2010   36.1540 C.3    60  SER60       0.1924
      7  C         13.4330   -7.8500   36.1140 C.2    60  SER60       0.2314
      8  O         12.4150   -7.6920   36.8340 O.2    60  SER60      -0.2863
      9  CB        14.7300   -9.2810   37.5420 C.3    60  SER60       0.2116
     10  OG        15.0570  -10.6290   37.9140 O.3    60  SER60      -0.2180
     11  N          9.6880   -8.0400   36.0050 N.3    63  LYS63      -0.1245
     12  CA         8.7730   -8.0940   37.1640 C.3    63  LYS63       0.1561
     13  C          8.0020   -6.8040   37.2780 C.2    63  LYS63       0.2260
     14  O          6.8230   -6.8410   37.7410 O.2    63  LYS63      -0.2867
     15  CB         9.5490   -8.3610   38.4520 C.3    63  LYS63       0.0271
     16  CG        10.2370   -9.7470   38.4790 C.3    63  LYS63       0.0035
     17  CD        10.7660  -10.0660   39.8650 C.3    63  LYS63       0.0206
     18  CE        11.3120  -11.4890   39.9780 C.3    63  LYS63       0.1093
     19  NZ        12.5110  -11.6510   39.1010 N.3    63  LYS63      -0.1314
     20  N         13.3930  -20.1040   45.6430 N.3   112  ASP112     -0.1239
     21  CA        13.6930  -19.7250   44.2980 C.3   112  ASP112      0.1674
     22  C         14.2990  -20.9470   43.5440 C.2   112  ASP112      0.2266
     23  O         15.4400  -21.2910   43.7340 O.2   112  ASP112     -0.2867
     24  CB        14.6510  -18.5260   44.2650 C.3   112  ASP112      0.1410
     25  CG        14.7230  -17.9880   42.8570 C.2   112  ASP112      0.3668
     26  OD1       14.6110  -18.7070   41.8430 O.co2 112  ASP112     -0.2456
     27  OD2       14.9360  -16.7290   42.7650 O.co2 112  ASP112     -0.2456
     28  N         15.4660  -21.1350   40.7740 N.3   114  THR114     -0.1218
     29  CA        16.6550  -20.8830   39.9270 C.3   114  THR114      0.1862
     30  C         17.8950  -21.2060   40.7380 C.2   114  THR114      0.2287
     31  O         18.9600  -21.4210   40.0810 O.2   114  THR114     -0.2866
     32  CB        16.7290  -19.4710   39.3730 C.3   114  THR114      0.1770
     33  OG1       16.8380  -18.5490   40.5130 O.3   114  THR114     -0.2211
     34  CG2       15.5400  -19.1330   38.4900 C.3   114  THR114      0.0375
     35  N         21.0950  -22.7660   38.5560 N.3   118  PHE118     -0.1227
     36  CA        22.2990  -21.9790   38.1880 C.3   118  PHE118      0.1736
     37  C         23.3590  -22.0590   39.2440 C.2   118  PHE118      0.2595
     38  O         24.2080  -21.1740   39.3610 O.2   118  PHE118     -0.2718
     39  CB        21.9130  -20.4780   37.9380 C.3   118  PHE118      0.0547
     40  CG        20.8050  -20.3530   36.8980 C.ar  118  PHE118     -0.0202
     41  CD1       20.9200  -21.0160   35.6640 C.ar  118  PHE118     -0.0042
     42  CD2       19.6650  -19.5670   37.1050 C.ar  118  PHE118     -0.0042
     43  CE1       19.9440  -20.9700   34.6540 C.ar  118  PHE118     -0.0003
     44  CE2       18.6440  -19.4910   36.1450 C.ar  118  PHE118     -0.0003
     45  CZ        18.7970  -20.1700   34.9250 C.ar  118  PHE118     -0.0000
     46  N         23.4110  -23.1360   40.0000 N.am  119  ALA119     -0.1980
     47  CA        24.5180  -23.3400   40.9540 C.3   119  ALA119      0.1597
     48  C         25.8150  -23.2890   40.1870 C.2   119  ALA119      0.2287
     49  O         26.8040  -22.7420   40.6980 O.2   119  ALA119     -0.2864
     50  CB        24.3990  -24.6590   41.7090 C.3   119  ALA119      0.0319
     51  N         27.2630  -21.7090   36.6350 N.3   121  THR121     -0.1218
     52  CA        26.7230  -20.7210   35.6940 C.3   121  THR121      0.1862
     53  C         26.5820  -21.2240   34.2980 C.2   121  THR121      0.2287
     54  O         25.4690  -21.2180   33.7270 O.2   121  THR121     -0.2866
     55  CB        27.7080  -19.5130   35.6980 C.3   121  THR121      0.1770
     56  OG1       27.7310  -19.0000   37.0280 O.3   121  THR121     -0.2211
     57  CG2       27.1980  -18.4240   34.7500 C.3   121  THR121      0.0375
     58  N         14.1650  -12.4840   47.9730 N.3   157  TYR157     -0.1241
     59  CA        13.8420  -12.3610   46.5580 C.3   157  TYR157      0.1605
     60  C         13.6900  -13.7550   45.9240 C.2   157  TYR157      0.2264
     61  O         14.5350  -14.6810   46.1220 O.2   157  TYR157     -0.2867
     62  CB        14.9020  -11.6280   45.8440 C.3   157  TYR157      0.0534
     63  CG        14.6250  -11.2200   44.4490 C.ar  157  TYR157     -0.0201
     64  CD1       14.2840   -9.8720   44.1470 C.ar  157  TYR157     -0.0009
     65  CD2       14.7000  -12.0630   43.3560 C.ar  157  TYR157     -0.0009
     66  CE1       14.0290   -9.4910   42.8170 C.ar  157  TYR157      0.0417
     67  CE2       14.4780  -11.7410   42.0530 C.ar  157  TYR157      0.0417
     68  CZ        14.1220  -10.4000   41.7830 C.ar  157  TYR157      0.1957
     69  OH        13.9190   -9.9850   40.4930 O.3   157  TYR157     -0.2866
     70  N         12.3420  -15.5990   42.1440 N.3   159  ASN159     -0.1240
     71  CA        11.7120  -15.6160   40.8260 C.3   159  ASN159      0.1653
     72  C         10.3400  -16.3080   40.8690 C.2   159  ASN159      0.2266
     73  O          9.4770  -15.9800   40.0610 O.2   159  ASN159     -0.2867
     74  CB        12.6360  -16.3500   39.8380 C.3   159  ASN159      0.1155
     75  CG        13.8060  -15.4590   39.4600 C.2   159  ASN159      0.2627
     76  OD1       13.5940  -14.4590   38.7590 O.2   159  ASN159     -0.2716
     77  ND2       15.0010  -15.7980   39.9000 N.am  159  ASN159     -0.0877
     78  N         28.0000  -14.3190   28.4770 N.3   212  LEU212     -0.1245
     79  CA        28.0190  -14.8930   29.8080 C.3   212  LEU212      0.1561
     80  C         29.4480  -15.1180   30.2520 C.2   212  LEU212      0.2260
     81  O         30.2060  -15.7890   29.5110 O.2   212  LEU212     -0.2867
     82  CB        27.1750  -16.2130   29.7110 C.3   212  LEU212      0.0270
     83  CG        27.0240  -16.9460   31.0680 C.3   212  LEU212      0.0019
     84  CD1       26.3420  -16.0520   32.1100 C.3   212  LEU212      0.0001
     85  CD2       26.2570  -18.2190   30.7900 C.3   212  LEU212      0.0001
     86  N         32.3420  -19.3860   35.1500 N.3   215  ASP215     -0.1239
     87  CA        32.8170  -19.4040   36.5330 C.3   215  ASP215      0.1674
     88  C         34.3210  -19.4810   36.6110 C.2   215  ASP215      0.2266
     89  O         34.8820  -18.9880   37.6190 O.2   215  ASP215     -0.2867
     90  CB        32.1650  -20.5960   37.2840 C.3   215  ASP215      0.1410
     91  CG        30.6930  -20.3390   37.5940 C.2   215  ASP215      0.3668
     92  OD1       30.2720  -19.1610   37.6510 O.co2 215  ASP215     -0.2456
     93  OD2       29.9810  -21.3670   37.7560 O.co2 215  ASP215     -0.2456
     94  N         12.6810  -20.3800   31.7330 N.3   231  TRP231     -0.1241
     95  CA        12.8400  -20.5740   33.1650 C.3   231  TRP231      0.1605
     96  C         12.4030  -19.3480   33.9210 C.2   231  TRP231      0.2264
     97  O         12.3690  -19.4080   35.1540 O.2   231  TRP231     -0.2867
     98  CB        14.3190  -20.9450   33.4550 C.3   231  TRP231      0.0550
     99  CG        15.2560  -19.8840   32.8670 C.ar  231  TRP231      0.0003
    100  CD1       15.8160  -19.8850   31.6290 C.ar  231  TRP231      0.0946
    101  CD2       15.6740  -18.6770   33.5690 C.ar  231  TRP231      0.0152
    102  NE1       16.5870  -18.7050   31.5370 N.ar  231  TRP231     -0.2442
    103  CE2       16.5270  -17.9710   32.6670 C.ar  231  TRP231      0.0810
    104  CE3       15.4370  -18.1160   34.8650 C.ar  231  TRP231      0.0012
    105  CZ2       17.1180  -16.7500   33.0260 C.ar  231  TRP231      0.0191
    106  CZ3       16.0070  -16.8960   35.2590 C.ar  231  TRP231      0.0001
    107  CH2       16.8370  -16.2580   34.3010 C.ar  231  TRP231      0.0015
    108  N          8.7840  -13.4740   35.1250 N.3   235  ALA235     -0.1231
    109  CA         9.7860  -12.9810   36.0470 C.3   235  ALA235      0.1697
    110  C         11.0200  -12.4210   35.3220 C.2   235  ALA235      0.2628
    111  O         11.8950  -11.8440   35.9770 O.2   235  ALA235     -0.2714
    112  CB        10.2850  -14.0760   36.9850 C.3   235  ALA235      0.0304
    113  N         11.1460  -12.6420   33.9920 N.am  236  GLY236     -0.1787
    114  CA        12.4020  -12.2450   33.3370 C.2   236  GLY236      0.0979
    115  C         12.5070  -12.2050   31.8370 C.3   236  GLY236      0.2260
    116  O         13.6420  -11.9070   31.4250 O.3   236  GLY236     -0.2137
    117  N         11.7670   -1.6890   42.8460 N.3   283  ARG283     -0.1245
    118  CA        12.8990   -1.4830   43.7650 C.3   283  ARG283      0.1563
    119  C         13.0410   -0.0160   44.0550 C.2   283  ARG283      0.2260
    120  O         12.8050    0.8330   43.1860 O.2   283  ARG283     -0.2867
    121  CB        14.2320   -1.9400   43.1540 C.3   283  ARG283      0.0307
    122  CG        14.1900   -3.4830   42.8970 C.3   283  ARG283      0.0489
    123  CD        15.6190   -3.8590   42.5580 C.3   283  ARG283      0.2205
    124  NE        15.8900   -5.3120   42.4350 N.pl3 283  ARG283     -0.0865
    125  CZ        16.1560   -6.1450   43.4090 C.cat 283  ARG283      0.5346
    126  NH1       16.1340   -5.6960   44.6570 N.pl3 283  ARG283      0.1354
    127  NH2       16.4180   -7.4100   43.2240 N.pl3 283  ARG283      0.1354
    128  N         16.2620   -3.7370   38.6080 N.3   297  THR297     -0.1203
    129  CA        17.4370   -4.2650   38.0110 C.3   297  THR297      0.1994
    130  C         17.1300   -5.5730   37.3040 C.2   297  THR297      0.2618
    131  O         16.1600   -6.2730   37.5810 O.2   297  THR297     -0.2717
    132  CB        18.5090   -4.5570   39.0510 C.3   297  THR297      0.1784
    133  OG1       17.9540   -5.3510   40.0860 O.3   297  THR297     -0.2211
    134  CG2       19.0150   -3.2250   39.7010 C.3   297  THR297      0.0376
    135  N         18.0210   -5.9400   36.3790 N.am  298  GLY298     -0.1942
    136  CA        17.9380   -7.2490   35.7370 C.3   298  GLY298      0.2014
    137  C         19.3020   -7.8670   35.5800 C.2   298  GLY298      0.2639
    138  O         20.2940   -7.2320   35.2290 O.2   298  GLY298     -0.2714
    139  N         19.3000   -9.1980   35.7650 N.am  299  THR299     -0.1950
    140  CA        20.4290  -10.0390   35.4880 C.3   299  THR299      0.1897
    141  C         19.8710  -11.2300   34.7060 C.2   299  THR299      0.2313
    142  O         19.0780  -12.0010   35.2570 O.2   299  THR299     -0.2863
    143  CB        21.1860  -10.5780   36.6990 C.3   299  THR299      0.1794
    144  OG1       21.7380   -9.4430   37.3660 O.3   299  THR299     -0.2208
    145  CG2       22.2400  -11.5700   36.2040 C.3   299  THR299      0.0378
    146  N         21.3120  -14.1330   31.4340 N.3   301  GLN301     -0.1245
    147  CA        22.6780  -14.4700   31.0010 C.3   301  GLN301      0.1566
    148  C         23.1430  -13.5670   29.8880 C.2   301  GLN301      0.2260
    149  O         22.5650  -13.4500   28.8040 O.2   301  GLN301     -0.2867
    150  CB        22.7340  -15.9140   30.5650 C.3   301  GLN301      0.0367
    151  CG        22.5890  -16.8980   31.7770 C.3   301  GLN301      0.0905
    152  CD        21.1940  -17.2620   32.1710 C.2   301  GLN301      0.2608
    153  OE1       20.1690  -16.6710   31.6560 O.2   301  GLN301     -0.2717
    154  NE2       21.0850  -18.2470   33.0870 N.am  301  GLN301     -0.0878
    155  N         23.3320   -7.2610   32.0860 N.3   304  TYR304     -0.1241
    156  CA        22.9880   -6.5690   33.3300 C.3   304  TYR304      0.1605
    157  C         22.3020   -5.2360   33.0170 C.2   304  TYR304      0.2264
    158  O         22.8670   -4.4010   32.2990 O.2   304  TYR304     -0.2867
    159  CB        24.2640   -6.2400   34.0670 C.3   304  TYR304      0.0534
    160  CG        24.9820   -7.3080   34.8380 C.ar  304  TYR304     -0.0201
    161  CD1       24.3190   -8.2430   35.6320 C.ar  304  TYR304     -0.0009
    162  CD2       26.3990   -7.3470   34.8350 C.ar  304  TYR304     -0.0009
    163  CE1       24.9840   -9.2080   36.3550 C.ar  304  TYR304      0.0417
    164  CE2       27.0710   -8.3000   35.5770 C.ar  304  TYR304      0.0417
    165  CZ        26.3720   -9.2440   36.3360 C.ar  304  TYR304      0.1957
    166  OH        27.0290  -10.1530   37.0870 O.3   304  TYR304     -0.2866
    167  N         27.2930  -10.8770   32.0130 N.3   324  SER324     -0.1202
    168  CA        26.7780  -11.2030   33.3260 C.3   324  SER324      0.2020
    169  C         27.7280  -12.1680   34.0070 C.2   324  SER324      0.2618
    170  O         28.8260  -12.4570   33.4950 O.2   324  SER324     -0.2717
    171  CB        25.3050  -11.7040   33.2460 C.3   324  SER324      0.2103
    172  OG        25.3800  -13.0230   32.6700 O.3   324  SER324     -0.2182
    173  N         27.3180  -12.6070   35.2000 N.am  325  ASN325     -0.1974
    174  CA        28.2020  -13.4030   36.0630 C.3   325  ASN325      0.1688
    175  C         29.5460  -12.6910   36.2150 C.2   325  ASN325      0.2292
    176  O         30.5870  -13.3420   36.1410 O.2   325  ASN325     -0.2864
    177  CB        28.3930  -14.8620   35.5750 C.3   325  ASN325      0.1181
    178  CG        29.0280  -15.7330   36.6470 C.2   325  ASN325      0.2629
    179  OD1       28.6260  -15.6050   37.8460 O.2   325  ASN325     -0.2716
    180  ND2       29.9450  -16.5960   36.2490 N.am  325  ASN325     -0.0877
    181  N         28.8240   -5.6440   37.4750 N.3   330  LEU330     -0.1245
    182  CA        27.4920   -5.3380   38.0480 C.3   330  LEU330      0.1561
    183  C         27.6060   -4.1500   38.9800 C.2   330  LEU330      0.2260
    184  O         26.7980   -3.2210   38.9630 O.2   330  LEU330     -0.2867
    185  CB        27.0050   -6.5900   38.7930 C.3   330  LEU330      0.0270
    186  CG        25.5690   -6.4100   39.4220 C.3   330  LEU330      0.0019
    187  CD1       24.5480   -6.0580   38.3410 C.3   330  LEU330      0.0001
    188  CD2       25.1400   -7.6520   40.1040 C.3   330  LEU330      0.0001
@<TRIPOS>BOND
     1    78    79    1
     2   149   148    2
     3    81    80    2
     4    82    79    1
     5    82    83    1
     6    79    80    1
     7   148   147    1
     8   150   147    1
     9   150   151    1
    10    85    83    1
    11   147   146    1
    12    83    84    1
    13   116   115    1
    14   102   100   ar
    15   102   103   ar
    16   100    99   ar
    17   153   152    2
    18     1     2    1
    19    94    95    1
    20   151   152    1
    21   115   114    1
    22   167   168    1
    23   155   156    1
    24   152   154   am
    25   158   157    2
    26   103   105   ar
    27   103   101   ar
    28   172   171    1
    29     2     3    1
    30    99    98    1
    31    99   101   ar
    32   157   156    1
    33   105   107   ar
    34    95    98    1
    35    95    96    1
    36   171   168    1
    37   168   169    1
    38   156   159    1
    39   114   113    2
    40     4     3    2
    41   170   169    2
    42   101   104   ar
    43    54    53    2
    44     3     5   am
    45    96    97    2
    46   113   110    1
    47   169   173   am
    48   159   160    1
    49    53    52    1
    50   107   106   ar
    51    43    45   ar
    52    43    41   ar
    53   141   142    2
    54   141   140    1
    55    57    55    1
    56   162   160   ar
    57   162   164   ar
    58   160   161   ar
    59   104   106   ar
    60    45    44   ar
    61     5     6    1
    62   108   109    1
    63    86    87    1
    64   173   174    1
    65   138   137    2
    66   110   111    2
    67   110   109    1
    68   140   139    1
    69   140   143    1
    70   177   174    1
    71   177   178    1
    72   164   165   ar
    73   137   136    1
    74   137   139   am
    75   161   163   ar
    76    41    40   ar
    77    52    55    1
    78    52    51    1
    79    55    56    1
    80   136   135    1
    81    11    12    1
    82   109   112    1
    83   174   175    1
    84     7     6    1
    85     7     8    2
    86   176   175    2
    87    44    42   ar
    88     6     9    1
    89   145   143    1
    90   180   178   am
    91   165   163   ar
    92   165   166    1
    93   135   130   am
    94    87    88    1
    95    87    90    1
    96    88    89    2
    97   178   179    2
    98   143   144    1
    99    40    42   ar
   100    40    39    1
   101    12    13    1
   102    12    15    1
   103    13    14    2
   104    90    91    1
   105   130   131    2
   106   130   129    1
   107   181   182    1
   108     9    10    1
   109    91    92   ar
   110    91    93   ar
   111    39    36    1
   112   129   128    1
   113   129   132    1
   114   182   185    1
   115   182   183    1
   116    36    35    1
   117    36    37    1
   118   187   186    1
   119    15    16    1
   120    16    17    1
   121    34    32    1
   122    76    75    2
   123   185   186    1
   124   184   183    2
   125   132   134    1
   126   132   133    1
   127    19    18    1
   128    37    38    2
   129    37    46   am
   130    32    29    1
   131    32    33    1
   132   186   188    1
   133    75    74    1
   134    75    77   am
   135    74    71    1
   136    17    18    1
   137    29    30    1
   138    29    28    1
   139    46    47    1
   140    73    72    2
   141    31    30    2
   142    48    49    2
   143    48    47    1
   144    69    68    1
   145    71    72    1
   146    71    70    1
   147    47    50    1
   148    68    67   ar
   149    68    66   ar
   150    26    25   ar
   151    67    65   ar
   152   124   123    1
   153   124   125    2
   154   123   122    1
   155    27    25   ar
   156    66    64   ar
   157   117   118    1
   158    25    24    1
   159   122   121    1
   160   121   118    1
   161   120   119    2
   162   127   125    1
   163    65    63   ar
   164   125   126    1
   165    22    23    2
   166    22    21    1
   167   118   119    1
   168    64    63   ar
   169    24    21    1
   170    21    20    1
   171    63    62    1
   172    62    59    1
   173    60    61    2
   174    60    59    1
   175    59    58    1
