@<TRIPOS>MOLECULE
tmp/1pwcA00.pdb
 134 129 0 0 0
SMALL
GASTEIGER

@<TRIPOS>ATOM
      1  N         15.9670   -9.2390   32.0710 N.3    59  GLY59      -0.1210
      2  CA        15.9820  -10.0450   33.2900 C.3    59  GLY59       0.1956
      3  C         14.8660   -9.6590   34.2320 C.2    59  GLY59       0.2612
      4  O         13.7150   -9.4260   33.8010 O.2    59  GLY59      -0.2717
      5  N         15.1790   -9.5600   35.5240 N.am   60  SER60      -0.1952
      6  CA        14.1750   -9.4090   36.5550 C.3    60  SER60       0.1924
      7  C         13.4950   -8.0380   36.5340 C.2    60  SER60       0.2314
      8  O         12.5130   -7.8640   37.2500 O.2    60  SER60      -0.2863
      9  CB        14.7710   -9.5360   37.9680 C.3    60  SER60       0.2116
     10  OG        15.0740  -10.9540   38.2140 O.3    60  SER60      -0.2180
     11  N         15.6130  -21.2750   41.3250 N.3   114  THR114     -0.1218
     12  CA        16.7830  -21.0280   40.5140 C.3   114  THR114      0.1862
     13  C         18.0470  -21.3380   41.2910 C.2   114  THR114      0.2287
     14  O         19.0990  -21.5760   40.6540 O.2   114  THR114     -0.2866
     15  CB        16.8830  -19.5970   39.9420 C.3   114  THR114      0.1770
     16  OG1       16.9250  -18.6720   41.0130 O.3   114  THR114     -0.2211
     17  CG2       15.7170  -19.2600   39.0330 C.3   114  THR114      0.0375
     18  N         21.2950  -23.1200   39.0510 N.3   118  PHE118     -0.1241
     19  CA        22.5240  -22.4150   38.6570 C.3   118  PHE118      0.1605
     20  C         23.6400  -22.5490   39.6940 C.2   118  PHE118      0.2264
     21  O         24.4970  -21.6750   39.8360 O.2   118  PHE118     -0.2867
     22  CB        22.2260  -20.9240   38.3230 C.3   118  PHE118      0.0534
     23  CG        21.1070  -20.7760   37.3000 C.ar  118  PHE118     -0.0203
     24  CD1       21.2240  -21.3540   36.0310 C.ar  118  PHE118     -0.0042
     25  CD2       19.9460  -20.1010   37.5680 C.ar  118  PHE118     -0.0042
     26  CE1       20.2080  -21.2390   35.1010 C.ar  118  PHE118     -0.0003
     27  CE2       18.9520  -19.9570   36.6450 C.ar  118  PHE118     -0.0003
     28  CZ        19.0350  -20.5450   35.3960 C.ar  118  PHE118     -0.0000
     29  N         14.1540  -12.5700   48.4590 N.3   157  TYR157     -0.1241
     30  CA        13.8510  -12.4620   47.0390 C.3   157  TYR157      0.1605
     31  C         13.7060  -13.8680   46.4610 C.2   157  TYR157      0.2264
     32  O         14.5770  -14.7110   46.6570 O.2   157  TYR157     -0.2867
     33  CB        14.9340  -11.6740   46.3660 C.3   157  TYR157      0.0534
     34  CG        14.6750  -11.3190   44.9210 C.ar  157  TYR157     -0.0201
     35  CD1       14.3610   -9.9680   44.6070 C.ar  157  TYR157     -0.0009
     36  CD2       14.7310  -12.2350   43.8760 C.ar  157  TYR157     -0.0009
     37  CE1       14.1140   -9.6060   43.2910 C.ar  157  TYR157      0.0417
     38  CE2       14.4820  -11.8420   42.5710 C.ar  157  TYR157      0.0417
     39  CZ        14.1710  -10.5540   42.2920 C.ar  157  TYR157      0.1957
     40  OH        13.9900  -10.1310   40.9780 O.3   157  TYR157     -0.2866
     41  N         12.4380  -15.7550   42.6710 N.3   159  ASN159     -0.1240
     42  CA        11.8210  -15.7880   41.3330 C.3   159  ASN159      0.1653
     43  C         10.4950  -16.4830   41.3690 C.2   159  ASN159      0.2266
     44  O          9.6010  -16.1330   40.5940 O.2   159  ASN159     -0.2867
     45  CB        12.7520  -16.5090   40.3490 C.3   159  ASN159      0.1155
     46  CG        13.8950  -15.6300   39.9180 C.2   159  ASN159      0.2627
     47  OD1       13.6760  -14.6480   39.2010 O.2   159  ASN159     -0.2716
     48  ND2       15.0860  -15.9910   40.3010 N.am  159  ASN159     -0.0877
     49  N         12.8070  -20.6470   32.2090 N.3   231  TRP231     -0.1241
     50  CA        13.0340  -20.7890   33.6490 C.3   231  TRP231      0.1605
     51  C         12.6070  -19.5750   34.4240 C.2   231  TRP231      0.2264
     52  O         12.5570  -19.6490   35.6400 O.2   231  TRP231     -0.2867
     53  CB        14.5270  -21.1490   33.9540 C.3   231  TRP231      0.0550
     54  CG        15.4470  -20.1050   33.4070 C.ar  231  TRP231      0.0003
     55  CD1       16.0350  -20.1020   32.1710 C.ar  231  TRP231      0.0946
     56  CD2       15.8780  -18.9280   34.0890 C.ar  231  TRP231      0.0152
     57  NE1       16.7850  -18.9720   32.0530 N.ar  231  TRP231     -0.2442
     58  CE2       16.7180  -18.2340   33.2110 C.ar  231  TRP231      0.0810
     59  CE3       15.6400  -18.3850   35.3650 C.ar  231  TRP231      0.0012
     60  CZ2       17.2890  -17.0360   33.6050 C.ar  231  TRP231      0.0191
     61  CZ3       16.2110  -17.1910   35.7360 C.ar  231  TRP231      0.0001
     62  CH2       17.0460  -16.5120   34.8430 C.ar  231  TRP231      0.0015
     63  N          8.9110  -13.6960   35.5760 N.3   235  ALA235     -0.1231
     64  CA         9.9450  -13.2120   36.4960 C.3   235  ALA235      0.1697
     65  C         11.1450  -12.6370   35.7580 C.2   235  ALA235      0.2628
     66  O         12.0020  -12.0390   36.4100 O.2   235  ALA235     -0.2714
     67  CB        10.4120  -14.3010   37.4220 C.3   235  ALA235      0.0304
     68  N         11.2880  -12.8860   34.4260 N.am  236  GLY236     -0.1787
     69  CA        12.5310  -12.4840   33.7820 C.2   236  GLY236      0.0979
     70  C         12.6330  -12.4580   32.2890 C.3   236  GLY236      0.2260
     71  O         13.7470  -12.1320   31.8570 O.3   236  GLY236     -0.2137
     72  N         11.9020   -1.8900   43.1460 N.3   283  ARG283     -0.1245
     73  CA        12.9980   -1.6250   44.0680 C.3   283  ARG283      0.1563
     74  C         13.1580   -0.1210   44.3180 C.2   283  ARG283      0.2260
     75  O         12.9410    0.6760   43.4080 O.2   283  ARG283     -0.2867
     76  CB        14.3440   -2.1310   43.4820 C.3   283  ARG283      0.0307
     77  CG        14.3470   -3.6240   43.2690 C.3   283  ARG283      0.0489
     78  CD        15.7750   -4.0770   43.0840 C.3   283  ARG283      0.2205
     79  NE        16.0980   -5.4550   43.0500 N.pl3 283  ARG283     -0.0865
     80  CZ        16.2930   -6.2330   44.1050 C.cat 283  ARG283      0.5346
     81  NH1       16.1640   -5.8440   45.3560 N.pl3 283  ARG283      0.1354
     82  NH2       16.6030   -7.4890   43.7980 N.pl3 283  ARG283      0.1354
     83  N         14.0770   -1.2350   38.8870 N.3   296  HIS296     -0.1226
     84  CA        14.4580   -2.6150   39.1250 C.3   296  HIS296      0.1752
     85  C         15.7880   -2.8880   38.4470 C.2   296  HIS296      0.2597
     86  O         16.1490   -2.2540   37.4530 O.2   296  HIS296     -0.2718
     87  CB        13.3640   -3.5960   38.6190 C.3   296  HIS296      0.0759
     88  CG        13.1660   -4.8280   39.4520 C.ar  296  HIS296      0.0818
     89  ND1       14.0640   -5.9000   39.5510 N.ar  296  HIS296     -0.2268
     90  CD2       12.1660   -5.1480   40.3360 C.ar  296  HIS296      0.1154
     91  CE1       13.5420   -6.8040   40.4070 C.ar  296  HIS296      0.1986
     92  NE2       12.4010   -6.3770   40.8980 N.ar  296  HIS296     -0.2212
     93  N         16.4870   -3.8790   38.9750 N.am  297  THR297     -0.1939
     94  CA        17.6530   -4.4700   38.3650 C.3   297  THR297      0.2028
     95  C         17.3130   -5.8010   37.6830 C.2   297  THR297      0.2643
     96  O         16.3000   -6.4390   38.0100 O.2   297  THR297     -0.2714
     97  CB        18.7240   -4.7400   39.4620 C.3   297  THR297      0.1808
     98  OG1       18.0660   -5.3830   40.5680 O.3   297  THR297     -0.2208
     99  CG2       19.3250   -3.3960   39.9330 C.3   297  THR297      0.0379
    100  N         18.1770   -6.2040   36.7920 N.am  298  GLY298     -0.1939
    101  CA        18.0740   -7.5120   36.1740 C.3   298  GLY298      0.2014
    102  C         19.4200   -8.1400   35.9480 C.2   298  GLY298      0.2640
    103  O         20.3920   -7.4960   35.5750 O.2   298  GLY298     -0.2714
    104  N         19.4340   -9.4700   36.1400 N.am  299  THR299     -0.1936
    105  CA        20.5210  -10.3480   35.7820 C.3   299  THR299      0.2028
    106  C         19.8830  -11.5180   35.0500 C.2   299  THR299      0.2642
    107  O         19.0640  -12.2800   35.6070 O.2   299  THR299     -0.2714
    108  CB        21.2800  -10.9240   36.9880 C.3   299  THR299      0.1808
    109  OG1       21.9240   -9.9190   37.7040 O.3   299  THR299     -0.2208
    110  CG2       22.3390  -11.8980   36.4380 C.3   299  THR299      0.0379
    111  N         20.2150  -11.6740   33.7900 N.am  300  VAL300     -0.1963
    112  CA        19.8710  -12.8580   33.0190 C.3   300  VAL300      0.1727
    113  C         21.1560  -13.1880   32.2730 C.2   300  VAL300      0.2616
    114  O         22.0400  -12.3120   32.1790 O.2   300  VAL300     -0.2715
    115  CB        18.6160  -12.6490   32.1690 C.3   300  VAL300      0.0290
    116  CG1       18.7850  -11.4470   31.2320 C.3   300  VAL300      0.0023
    117  CG2       18.2160  -13.8910   31.3730 C.3   300  VAL300      0.0023
    118  N         21.3520  -14.4100   31.8230 N.am  301  GLN301     -0.1977
    119  CA        22.7100  -14.8040   31.4190 C.3   301  GLN301      0.1601
    120  C         23.2310  -13.8910   30.3220 C.2   301  GLN301      0.2287
    121  O         22.6420  -13.7760   29.2560 O.2   301  GLN301     -0.2864
    122  CB        22.7420  -16.2770   30.9710 C.3   301  GLN301      0.0394
    123  CG        22.5910  -17.2700   32.1080 C.3   301  GLN301      0.0908
    124  CD        21.1810  -17.5720   32.5230 C.2   301  GLN301      0.2608
    125  OE1       20.1850  -16.9910   32.0310 O.2   301  GLN301     -0.2717
    126  NE2       21.0560  -18.5250   33.4200 N.am  301  GLN301     -0.0878
    127  N         28.8870   -5.8080   37.7640 N.3   330  LEU330     -0.1245
    128  CA        27.5970   -5.4840   38.3740 C.3   330  LEU330      0.1561
    129  C         27.7200   -4.2670   39.3050 C.2   330  LEU330      0.2260
    130  O         26.9270   -3.3050   39.2500 O.2   330  LEU330     -0.2867
    131  CB        27.0350   -6.6830   39.1180 C.3   330  LEU330      0.0270
    132  CG        25.6950   -6.4300   39.8570 C.3   330  LEU330      0.0019
    133  CD1       24.6060   -6.0830   38.8370 C.3   330  LEU330      0.0001
    134  CD2       25.3030   -7.6310   40.6790 C.3   330  LEU330      0.0001
@<TRIPOS>BOND
     1   121   120    2
     2   120   119    1
     3   122   119    1
     4   122   123    1
     5   116   115    1
     6   117   115    1
     7   119   118    1
     8   118   113   am
     9    71    70    1
    10   125   124    2
    11    57    55   ar
    12    57    58   ar
    13     1     2    1
    14   123   124    1
    15   115   112    1
    16    55    54   ar
    17   114   113    2
    18    49    50    1
    19   113   112    1
    20    70    69    1
    21   124   126   am
    22   112   111    1
    23    58    60   ar
    24    58    56   ar
    25     2     3    1
    26    54    53    1
    27    54    56   ar
    28    60    62   ar
    29    50    53    1
    30    50    51    1
    31    69    68    2
    32   111   106   am
    33     4     3    2
    34    56    59   ar
    35     3     5   am
    36    51    52    2
    37    68    65    1
    38    62    61   ar
    39   106   107    2
    40   106   105    1
    41    26    28   ar
    42    26    24   ar
    43    59    61   ar
    44    28    27   ar
    45     5     6    1
    46   103   102    2
    47    63    64    1
    48    65    66    2
    49    65    64    1
    50   105   104    1
    51   105   108    1
    52   102   104   am
    53   102   101    1
    54    24    23   ar
    55   101   100    1
    56   110   108    1
    57    64    67    1
    58     7     6    1
    59     7     8    2
    60     6     9    1
    61    27    25   ar
    62   100    95   am
    63   108   109    1
    64    23    25   ar
    65    23    22    1
    66    86    85    2
    67    95    96    2
    68    95    94    1
    69   127   128    1
    70     9    10    1
    71    22    19    1
    72    94    93    1
    73    94    97    1
    74   128   131    1
    75   128   129    1
    76    85    93   am
    77    85    84    1
    78    87    84    1
    79    87    88    1
    80    19    18    1
    81    19    20    1
    82   133   132    1
    83    83    84    1
    84    17    15    1
    85   131   132    1
    86    47    46    2
    87   130   129    2
    88    88    89   ar
    89    88    90   ar
    90    97    99    1
    91    97    98    1
    92    89    91   ar
    93    20    21    2
    94   132   134    1
    95    46    48   am
    96    46    45    1
    97    15    12    1
    98    15    16    1
    99    90    92   ar
   100    45    42    1
   101    91    92   ar
   102    12    13    1
   103    12    11    1
   104    44    43    2
   105    14    13    2
   106    40    39    1
   107    42    43    1
   108    42    41    1
   109    39    38   ar
   110    39    37   ar
   111    38    36   ar
   112    79    78    1
   113    79    80    2
   114    78    77    1
   115    72    73    1
   116    77    76    1
   117    37    35   ar
   118    75    74    2
   119    76    73    1
   120    82    80    1
   121    36    34   ar
   122    73    74    1
   123    80    81    1
   124    35    34   ar
   125    34    33    1
   126    33    30    1
   127    31    32    2
   128    31    30    1
   129    30    29    1
