@<TRIPOS>MOLECULE
tmp/1pwdA00.pdb
 149 141 0 0 0
SMALL
GASTEIGER

@<TRIPOS>ATOM
      1  N         15.9830   -9.2880   32.1640 N.3    59  GLY59      -0.1210
      2  CA        15.9680  -10.1340   33.3520 C.3    59  GLY59       0.1956
      3  C         14.8810   -9.6950   34.3220 C.2    59  GLY59       0.2612
      4  O         13.7430   -9.4570   33.9260 O.2    59  GLY59      -0.2717
      5  N         15.2490   -9.6110   35.6020 N.am   60  SER60      -0.1952
      6  CA        14.2810   -9.4370   36.6730 C.3    60  SER60       0.1924
      7  C         13.5660   -8.1050   36.6250 C.2    60  SER60       0.2314
      8  O         12.5830   -7.9120   37.3380 O.2    60  SER60      -0.2863
      9  CB        14.9250   -9.4890   38.0650 C.3    60  SER60       0.2116
     10  OG        15.2640  -10.8440   38.4080 O.3    60  SER60      -0.2180
     11  N          9.8560   -8.2870   36.5460 N.3    63  LYS63      -0.1245
     12  CA         8.9520   -8.2990   37.7170 C.3    63  LYS63       0.1561
     13  C          8.1420   -6.9950   37.8220 C.2    63  LYS63       0.2260
     14  O          6.9930   -7.0540   38.2520 O.2    63  LYS63      -0.2867
     15  CB         9.7440   -8.5450   38.9960 C.3    63  LYS63       0.0271
     16  CG        10.4010   -9.9250   39.0460 C.3    63  LYS63       0.0035
     17  CD        10.9870  -10.2420   40.4080 C.3    63  LYS63       0.0206
     18  CE        11.5320  -11.6690   40.5130 C.3    63  LYS63       0.1093
     19  NZ        12.7180  -11.8840   39.6770 N.3    63  LYS63      -0.1314
     20  N         13.6220  -20.2190   46.2420 N.3   112  ASP112     -0.1239
     21  CA        13.9520  -19.8810   44.8590 C.3   112  ASP112      0.1674
     22  C         14.5930  -21.0700   44.1690 C.2   112  ASP112      0.2266
     23  O         15.7600  -21.3650   44.4060 O.2   112  ASP112     -0.2867
     24  CB        14.8770  -18.6680   44.8450 C.3   112  ASP112      0.1410
     25  CG        14.9570  -18.0760   43.4510 C.2   112  ASP112      0.3668
     26  OD1       14.7870  -18.8180   42.4700 O.co2 112  ASP112     -0.2456
     27  OD2       15.1760  -16.8360   43.2860 O.co2 112  ASP112     -0.2456
     28  N         15.7980  -21.3460   41.3960 N.3   114  THR114     -0.1203
     29  CA        16.9780  -21.0700   40.5500 C.3   114  THR114      0.1994
     30  C         18.2620  -21.2950   41.3320 C.2   114  THR114      0.2617
     31  O         19.3300  -21.4570   40.6940 O.2   114  THR114     -0.2717
     32  CB        16.9770  -19.6340   39.9870 C.3   114  THR114      0.1784
     33  OG1       17.0050  -18.6680   41.0440 O.3   114  THR114     -0.2211
     34  CG2       15.7620  -19.3630   39.1110 C.3   114  THR114      0.0376
     35  N         18.2060  -21.3430   42.6560 N.am  115  ASN115     -0.1974
     36  CA        19.4030  -21.7150   43.4180 C.3   115  ASN115      0.1688
     37  C         19.8050  -23.1700   43.1440 C.2   115  ASN115      0.2292
     38  O         20.9820  -23.4920   43.3110 O.2   115  ASN115     -0.2864
     39  CB        19.2190  -21.4780   44.9120 C.3   115  ASN115      0.1181
     40  CG        19.1240  -20.0190   45.3050 C.2   115  ASN115      0.2629
     41  OD1       19.5460  -19.6260   46.4110 O.2   115  ASN115     -0.2716
     42  ND2       18.5770  -19.1700   44.4680 N.am  115  ASN115     -0.0877
     43  N         21.2840  -23.0510   39.0790 N.3   118  PHE118     -0.1241
     44  CA        22.5320  -22.3810   38.6770 C.3   118  PHE118      0.1605
     45  C         23.6180  -22.4890   39.7400 C.2   118  PHE118      0.2264
     46  O         24.4640  -21.6100   39.8090 O.2   118  PHE118     -0.2867
     47  CB        22.2120  -20.9220   38.3020 C.3   118  PHE118      0.0534
     48  CG        21.0840  -20.7960   37.2820 C.ar  118  PHE118     -0.0203
     49  CD1       21.1670  -21.4700   36.0590 C.ar  118  PHE118     -0.0042
     50  CD2       19.9860  -20.0270   37.5360 C.ar  118  PHE118     -0.0042
     51  CE1       20.1020  -21.3710   35.1710 C.ar  118  PHE118     -0.0003
     52  CE2       18.9010  -19.8930   36.6600 C.ar  118  PHE118     -0.0003
     53  CZ        18.9610  -20.5730   35.4310 C.ar  118  PHE118     -0.0000
     54  N         14.4180  -12.5670   48.5020 N.3   157  TYR157     -0.1241
     55  CA        14.0550  -12.5120   47.0680 C.3   157  TYR157      0.1605
     56  C         13.9210  -13.8990   46.4940 C.2   157  TYR157      0.2264
     57  O         14.7540  -14.7860   46.6870 O.2   157  TYR157     -0.2867
     58  CB        15.1170  -11.7540   46.3470 C.3   157  TYR157      0.0534
     59  CG        14.8480  -11.3470   44.9460 C.ar  157  TYR157     -0.0201
     60  CD1       14.4990  -10.0150   44.6370 C.ar  157  TYR157     -0.0009
     61  CD2       14.9370  -12.2440   43.8780 C.ar  157  TYR157     -0.0009
     62  CE1       14.2460   -9.6300   43.3300 C.ar  157  TYR157      0.0417
     63  CE2       14.7080  -11.8580   42.5980 C.ar  157  TYR157      0.0417
     64  CZ        14.3480  -10.5510   42.3140 C.ar  157  TYR157      0.1957
     65  OH        14.1730  -10.1510   41.0080 O.3   157  TYR157     -0.2866
     66  N         12.5850  -15.7930   42.7560 N.3   159  ASN159     -0.1240
     67  CA        11.9270  -15.8190   41.4360 C.3   159  ASN159      0.1653
     68  C         10.5850  -16.5380   41.4990 C.2   159  ASN159      0.2266
     69  O          9.6550  -16.1850   40.7440 O.2   159  ASN159     -0.2867
     70  CB        12.8160  -16.5250   40.4160 C.3   159  ASN159      0.1155
     71  CG        13.9910  -15.6990   39.9760 C.2   159  ASN159      0.2627
     72  OD1       13.7810  -14.6940   39.3110 O.2   159  ASN159     -0.2716
     73  ND2       15.1980  -16.1060   40.2830 N.am  159  ASN159     -0.0877
     74  N         12.8240  -20.7190   32.3430 N.3   231  TRP231     -0.1241
     75  CA        13.0360  -20.8740   33.7750 C.3   231  TRP231      0.1605
     76  C         12.6120  -19.6230   34.5430 C.2   231  TRP231      0.2264
     77  O         12.5420  -19.7150   35.7560 O.2   231  TRP231     -0.2867
     78  CB        14.5020  -21.2520   34.1100 C.3   231  TRP231      0.0550
     79  CG        15.4270  -20.2250   33.5190 C.ar  231  TRP231      0.0003
     80  CD1       16.0240  -20.2000   32.2800 C.ar  231  TRP231      0.0946
     81  CD2       15.8420  -19.0260   34.1920 C.ar  231  TRP231      0.0152
     82  NE1       16.7750  -19.0570   32.1650 N.ar  231  TRP231     -0.2442
     83  CE2       16.6990  -18.3200   33.3080 C.ar  231  TRP231      0.0810
     84  CE3       15.6120  -18.4470   35.4550 C.ar  231  TRP231      0.0012
     85  CZ2       17.2960  -17.1100   33.6240 C.ar  231  TRP231      0.0191
     86  CZ3       16.2130  -17.2300   35.7810 C.ar  231  TRP231      0.0001
     87  CH2       17.0600  -16.5560   34.8640 C.ar  231  TRP231      0.0015
     88  N          8.9330  -13.7360   35.7170 N.3   235  ALA235     -0.1231
     89  CA         9.9860  -13.2650   36.6290 C.3   235  ALA235      0.1697
     90  C         11.1930  -12.6980   35.8690 C.2   235  ALA235      0.2628
     91  O         12.0780  -12.1000   36.4970 O.2   235  ALA235     -0.2714
     92  CB        10.4720  -14.3620   37.5410 C.3   235  ALA235      0.0304
     93  N         11.2720  -12.9010   34.5680 N.am  236  GLY236     -0.1787
     94  CA        12.5150  -12.5480   33.8700 C.2   236  GLY236      0.0979
     95  C         12.6400  -12.5060   32.3830 C.3   236  GLY236      0.2260
     96  O         13.7830  -12.2250   31.9690 O.3   236  GLY236     -0.2137
     97  N         12.0030   -1.8450   43.2310 N.3   283  ARG283     -0.1245
     98  CA        13.1250   -1.6170   44.1250 C.3   283  ARG283      0.1563
     99  C         13.3300   -0.1310   44.3870 C.2   283  ARG283      0.2260
    100  O         13.1010    0.7000   43.5010 O.2   283  ARG283     -0.2867
    101  CB        14.4360   -2.1570   43.5340 C.3   283  ARG283      0.0307
    102  CG        14.4770   -3.6470   43.3530 C.3   283  ARG283      0.0489
    103  CD        15.8580   -4.1270   42.9980 C.3   283  ARG283      0.2205
    104  NE        16.1580   -5.5370   42.8930 N.pl3 283  ARG283     -0.0865
    105  CZ        16.4890   -6.3500   43.9010 C.cat 283  ARG283      0.5346
    106  NH1       16.5090   -5.9200   45.1690 N.pl3 283  ARG283      0.1354
    107  NH2       16.7790   -7.5890   43.6530 N.pl3 283  ARG283      0.1354
    108  N         16.5600   -3.8740   39.0390 N.3   297  THR297     -0.1203
    109  CA        17.7340   -4.4420   38.4220 C.3   297  THR297      0.1994
    110  C         17.3700   -5.7700   37.7130 C.2   297  THR297      0.2618
    111  O         16.3380   -6.4060   38.0000 O.2   297  THR297     -0.2717
    112  CB        18.8370   -4.7490   39.4580 C.3   297  THR297      0.1784
    113  OG1       18.1920   -5.5350   40.4980 O.3   297  THR297     -0.2211
    114  CG2       19.3820   -3.4630   40.0570 C.3   297  THR297      0.0376
    115  N         18.2290   -6.1710   36.7970 N.am  298  GLY298     -0.1942
    116  CA        18.0770   -7.4520   36.1520 C.3   298  GLY298      0.2014
    117  C         19.4290   -8.1390   35.9720 C.2   298  GLY298      0.2640
    118  O         20.4120   -7.4860   35.6350 O.2   298  GLY298     -0.2714
    119  N         19.4170   -9.4600   36.1280 N.am  299  THR299     -0.1936
    120  CA        20.5300  -10.3240   35.8290 C.3   299  THR299      0.2028
    121  C         19.9480  -11.5300   35.1140 C.2   299  THR299      0.2642
    122  O         19.1950  -12.3230   35.7190 O.2   299  THR299     -0.2714
    123  CB        21.2900  -10.8180   37.0600 C.3   299  THR299      0.1808
    124  OG1       21.8010   -9.6970   37.7470 O.3   299  THR299     -0.2208
    125  CG2       22.4490  -11.7220   36.6000 C.3   299  THR299      0.0379
    126  N         20.2590  -11.6700   33.8590 N.am  300  VAL300     -0.1963
    127  CA        19.8990  -12.8930   33.0880 C.3   300  VAL300      0.1727
    128  C         21.2110  -13.2450   32.4020 C.2   300  VAL300      0.2616
    129  O         22.0910  -12.3670   32.3100 O.2   300  VAL300     -0.2715
    130  CB        18.6400  -12.6450   32.2610 C.3   300  VAL300      0.0290
    131  CG1       18.8550  -11.5150   31.2640 C.3   300  VAL300      0.0023
    132  CG2       18.2270  -13.9110   31.5200 C.3   300  VAL300      0.0023
    133  N         21.4100  -14.4810   31.9720 N.am  301  GLN301     -0.1977
    134  CA        22.7580  -14.8870   31.5690 C.3   301  GLN301      0.1601
    135  C         23.2890  -13.9900   30.4720 C.2   301  GLN301      0.2287
    136  O         22.6830  -13.8860   29.3900 O.2   301  GLN301     -0.2864
    137  CB        22.7970  -16.3450   31.1110 C.3   301  GLN301      0.0394
    138  CG        22.6500  -17.3500   32.2740 C.3   301  GLN301      0.0908
    139  CD        21.2260  -17.6690   32.6350 C.2   301  GLN301      0.2608
    140  OE1       20.2540  -17.0640   32.1590 O.2   301  GLN301     -0.2717
    141  NE2       21.0840  -18.6660   33.4820 N.am  301  GLN301     -0.0878
    142  N         29.1260   -5.7770   37.8350 N.3   330  LEU330     -0.1245
    143  CA        27.8280   -5.4540   38.4380 C.3   330  LEU330      0.1561
    144  C         27.9650   -4.2520   39.3540 C.2   330  LEU330      0.2260
    145  O         27.1770   -3.2830   39.2920 O.2   330  LEU330     -0.2867
    146  CB        27.3120   -6.6940   39.1970 C.3   330  LEU330      0.0270
    147  CG        25.9580   -6.4380   39.8910 C.3   330  LEU330      0.0019
    148  CD1       24.8670   -6.1560   38.8740 C.3   330  LEU330      0.0001
    149  CD2       25.6390   -7.6320   40.7600 C.3   330  LEU330      0.0001
@<TRIPOS>BOND
     1   136   135    2
     2   135   134    1
     3   137   134    1
     4   137   138    1
     5   131   130    1
     6   132   130    1
     7   134   133    1
     8    96    95    1
     9   133   128   am
    10   140   139    2
    11     1     2    1
    12    82    80   ar
    13    82    83   ar
    14   130   127    1
    15   138   139    1
    16    80    79   ar
    17   129   128    2
    18    74    75    1
    19    95    94    1
    20   128   127    1
    21   139   141   am
    22   127   126    1
    23    83    85   ar
    24    83    81   ar
    25     2     3    1
    26    79    78    1
    27    79    81   ar
    28    85    87   ar
    29    75    78    1
    30    75    76    1
    31   126   121   am
    32    94    93    2
    33     4     3    2
    34    81    84   ar
    35     3     5   am
    36    76    77    2
    37    93    90    1
    38    87    86   ar
    39   121   122    2
    40   121   120    1
    41    51    53   ar
    42    51    49   ar
    43    53    52   ar
    44    84    86   ar
    45     5     6    1
    46   118   117    2
    47    88    89    1
    48   120   119    1
    49   120   123    1
    50    90    91    2
    51    90    89    1
    52   117   119   am
    53   117   116    1
    54    49    48   ar
    55   116   115    1
    56    11    12    1
    57   125   123    1
    58     7     6    1
    59     7     8    2
    60    89    92    1
    61    52    50   ar
    62     6     9    1
    63   115   110   am
    64   123   124    1
    65    48    50   ar
    66    48    47    1
    67   110   111    2
    68   110   109    1
    69    12    13    1
    70    12    15    1
    71    13    14    2
    72   142   143    1
    73     9    10    1
    74    47    44    1
    75   109   108    1
    76   109   112    1
    77   143   146    1
    78   143   144    1
    79    44    43    1
    80    44    45    1
    81   148   147    1
    82    15    16    1
    83    16    17    1
    84    34    32    1
    85   146   147    1
    86   145   144    2
    87    72    71    2
    88   112   114    1
    89   112   113    1
    90    19    18    1
    91    45    46    2
    92   147   149    1
    93    71    73   am
    94    71    70    1
    95    32    29    1
    96    32    33    1
    97    17    18    1
    98    70    67    1
    99    29    30    1
   100    29    28    1
   101    31    30    2
   102    69    68    2
   103    65    64    1
   104    30    35   am
   105    67    68    1
   106    67    66    1
   107    64    63   ar
   108    64    62   ar
   109    26    25   ar
   110    63    61   ar
   111    35    36    1
   112   104   103    1
   113   104   105    2
   114   103   102    1
   115    37    38    2
   116    37    36    1
   117    97    98    1
   118    27    25   ar
   119    62    60   ar
   120   102   101    1
   121    36    39    1
   122    25    24    1
   123   100    99    2
   124   101    98    1
   125   107   105    1
   126    61    59   ar
   127   105   106    1
   128    98    99    1
   129    22    23    2
   130    22    21    1
   131    42    40   am
   132    60    59   ar
   133    24    21    1
   134    21    20    1
   135    39    40    1
   136    59    58    1
   137    40    41    2
   138    58    55    1
   139    56    57    2
   140    56    55    1
   141    55    54    1
