@<TRIPOS>MOLECULE
tmp/1pwgA00.pdb
 189 178 0 0 0
SMALL
GASTEIGER

@<TRIPOS>ATOM
      1  N         15.9610   -9.4500   32.2380 N.3    59  GLY59      -0.1210
      2  CA        15.9320  -10.2490   33.4420 C.3    59  GLY59       0.1956
      3  C         14.7980   -9.8450   34.3700 C.2    59  GLY59       0.2612
      4  O         13.6660   -9.6120   33.9400 O.2    59  GLY59      -0.2717
      5  N         15.1040   -9.7530   35.6810 N.am   60  SER60      -0.1952
      6  CA        14.1120   -9.5520   36.7070 C.3    60  SER60       0.1924
      7  C         13.4230   -8.1810   36.6600 C.2    60  SER60       0.2314
      8  O         12.4370   -8.0140   37.3660 O.2    60  SER60      -0.2863
      9  CB        14.6800   -9.7270   38.0960 C.3    60  SER60       0.2116
     10  OG        15.0130  -11.0800   38.3750 O.3    60  SER60      -0.2180
     11  N         13.3870  -20.3070   46.4450 N.3   112  ASP112     -0.1239
     12  CA        13.7770  -19.9280   45.0650 C.3   112  ASP112      0.1674
     13  C         14.4340  -21.1300   44.3710 C.2   112  ASP112      0.2266
     14  O         15.6000  -21.4470   44.6180 O.2   112  ASP112     -0.2867
     15  CB        14.6810  -18.7470   45.0610 C.3   112  ASP112      0.1410
     16  CG        14.8420  -18.1510   43.6640 C.2   112  ASP112      0.3668
     17  OD1       14.7340  -18.9230   42.6700 O.co2 112  ASP112     -0.2456
     18  OD2       15.0810  -16.9390   43.5690 O.co2 112  ASP112     -0.2456
     19  N         15.6370  -21.4360   41.5650 N.3   114  THR114     -0.1218
     20  CA        16.8160  -21.1940   40.7430 C.3   114  THR114      0.1862
     21  C         18.1010  -21.4470   41.5150 C.2   114  THR114      0.2287
     22  O         19.1370  -21.6310   40.8780 O.2   114  THR114     -0.2866
     23  CB        16.8630  -19.7660   40.1950 C.3   114  THR114      0.1770
     24  OG1       16.9580  -18.8000   41.2480 O.3   114  THR114     -0.2211
     25  CG2       15.6390  -19.4490   39.3080 C.3   114  THR114      0.0375
     26  N         21.2060  -23.1040   39.2650 N.3   118  PHE118     -0.1227
     27  CA        22.4230  -22.3920   38.8820 C.3   118  PHE118      0.1736
     28  C         23.5310  -22.4960   39.9330 C.2   118  PHE118      0.2595
     29  O         24.4130  -21.6460   40.0300 O.2   118  PHE118     -0.2718
     30  CB        22.0710  -20.9160   38.5360 C.3   118  PHE118      0.0547
     31  CG        20.9830  -20.8130   37.5040 C.ar  118  PHE118     -0.0202
     32  CD1       21.0790  -21.5060   36.2800 C.ar  118  PHE118     -0.0042
     33  CD2       19.8730  -20.0690   37.7700 C.ar  118  PHE118     -0.0042
     34  CE1       20.0480  -21.4260   35.3800 C.ar  118  PHE118     -0.0003
     35  CE2       18.8280  -19.9850   36.8170 C.ar  118  PHE118     -0.0003
     36  CZ        18.9010  -20.6770   35.6250 C.ar  118  PHE118     -0.0000
     37  N         23.5400  -23.5440   40.7260 N.am  119  ALA119     -0.1980
     38  CA        24.6920  -23.7720   41.6230 C.3   119  ALA119      0.1597
     39  C         26.0290  -23.7390   40.9100 C.2   119  ALA119      0.2287
     40  O         27.0060  -23.2240   41.4800 O.2   119  ALA119     -0.2864
     41  CB        24.4700  -25.0650   42.3990 C.3   119  ALA119      0.0319
     42  N         27.4730  -22.2130   37.3620 N.3   121  THR121     -0.1218
     43  CA        26.9410  -21.2060   36.4310 C.3   121  THR121      0.1862
     44  C         26.7630  -21.7380   34.9990 C.2   121  THR121      0.2287
     45  O         25.6320  -21.6810   34.4510 O.2   121  THR121     -0.2866
     46  CB        27.8960  -20.0030   36.4490 C.3   121  THR121      0.1770
     47  OG1       27.8900  -19.4630   37.7790 O.3   121  THR121     -0.2211
     48  CG2       27.4560  -18.9440   35.4270 C.3   121  THR121      0.0375
     49  N         14.1420  -12.6520   48.6340 N.3   157  TYR157     -0.1241
     50  CA        13.8430  -12.5550   47.2170 C.3   157  TYR157      0.1605
     51  C         13.6890  -13.9660   46.6350 C.2   157  TYR157      0.2264
     52  O         14.6130  -14.7700   46.8160 O.2   157  TYR157     -0.2867
     53  CB        14.8900  -11.7700   46.5120 C.3   157  TYR157      0.0534
     54  CG        14.5910  -11.4190   45.0650 C.ar  157  TYR157     -0.0201
     55  CD1       14.3350  -10.0770   44.7330 C.ar  157  TYR157     -0.0009
     56  CD2       14.5810  -12.3160   44.0580 C.ar  157  TYR157     -0.0009
     57  CE1       14.0440   -9.7030   43.4300 C.ar  157  TYR157      0.0417
     58  CE2       14.3100  -11.9840   42.7520 C.ar  157  TYR157      0.0417
     59  CZ        14.0570  -10.6620   42.4230 C.ar  157  TYR157      0.1957
     60  OH        13.8750  -10.2390   41.1380 O.3   157  TYR157     -0.2866
     61  N         12.4220  -15.9060   42.8910 N.3   159  ASN159     -0.1240
     62  CA        11.8130  -15.9370   41.5480 C.3   159  ASN159      0.1653
     63  C         10.4470  -16.6280   41.5890 C.2   159  ASN159      0.2266
     64  O          9.5600  -16.2720   40.8080 O.2   159  ASN159     -0.2867
     65  CB        12.7110  -16.6710   40.5710 C.3   159  ASN159      0.1155
     66  CG        13.8770  -15.7890   40.1490 C.2   159  ASN159      0.2627
     67  OD1       13.6690  -14.8440   39.3760 O.2   159  ASN159     -0.2716
     68  ND2       15.0850  -16.0870   40.5960 N.am  159  ASN159     -0.0877
     69  N         28.1340  -14.9080   29.1820 N.3   212  LEU212     -0.1245
     70  CA        28.1430  -15.4550   30.5210 C.3   212  LEU212      0.1561
     71  C         29.5640  -15.7030   30.9630 C.2   212  LEU212      0.2260
     72  O         30.3380  -16.3850   30.2580 O.2   212  LEU212     -0.2867
     73  CB        27.3410  -16.7590   30.5010 C.3   212  LEU212      0.0270
     74  CG        27.1610  -17.4980   31.7950 C.3   212  LEU212      0.0019
     75  CD1       26.4720  -16.6180   32.8630 C.3   212  LEU212      0.0001
     76  CD2       26.3400  -18.7950   31.5660 C.3   212  LEU212      0.0001
     77  N         32.5370  -19.7840   35.9780 N.3   215  ASP215     -0.1239
     78  CA        32.9990  -19.7820   37.3600 C.3   215  ASP215      0.1674
     79  C         34.5120  -19.8270   37.4940 C.2   215  ASP215      0.2266
     80  O         35.0500  -19.2910   38.4640 O.2   215  ASP215     -0.2867
     81  CB        32.3700  -20.9540   38.1110 C.3   215  ASP215      0.1410
     82  CG        30.8700  -20.7680   38.3770 C.2   215  ASP215      0.3668
     83  OD1       30.4480  -19.6000   38.4520 O.co2 215  ASP215     -0.2456
     84  OD2       30.1640  -21.7620   38.5780 O.co2 215  ASP215     -0.2456
     85  N         12.7560  -20.8460   32.4850 N.3   231  TRP231     -0.1241
     86  CA        12.9450  -20.9820   33.9210 C.3   231  TRP231      0.1605
     87  C         12.5010  -19.7400   34.6720 C.2   231  TRP231      0.2264
     88  O         12.4320  -19.8300   35.9070 O.2   231  TRP231     -0.2867
     89  CB        14.4200  -21.3530   34.2240 C.3   231  TRP231      0.0550
     90  CG        15.3720  -20.2780   33.7270 C.ar  231  TRP231      0.0003
     91  CD1       15.9860  -20.2860   32.4890 C.ar  231  TRP231      0.0946
     92  CD2       15.7640  -19.0690   34.4060 C.ar  231  TRP231      0.0152
     93  NE1       16.7470  -19.1670   32.3670 N.ar  231  TRP231     -0.2442
     94  CE2       16.6440  -18.3930   33.4990 C.ar  231  TRP231      0.0810
     95  CE3       15.4710  -18.5220   35.6610 C.ar  231  TRP231      0.0012
     96  CZ2       17.2130  -17.1730   33.8510 C.ar  231  TRP231      0.0191
     97  CZ3       16.0540  -17.2930   35.9880 C.ar  231  TRP231      0.0001
     98  CH2       16.9170  -16.6410   35.0740 C.ar  231  TRP231      0.0015
     99  N          8.8470  -13.8580   35.7390 N.3   235  ALA235     -0.1231
    100  CA         9.8710  -13.3700   36.6360 C.3   235  ALA235      0.1697
    101  C         11.0710  -12.8180   35.9030 C.2   235  ALA235      0.2628
    102  O         11.9430  -12.2280   36.5530 O.2   235  ALA235     -0.2714
    103  CB        10.3420  -14.4670   37.5750 C.3   235  ALA235      0.0304
    104  N         11.2270  -13.0470   34.5740 N.am  236  GLY236     -0.1787
    105  CA        12.4730  -12.6670   33.9270 C.2   236  GLY236      0.0979
    106  C         12.6120  -12.6450   32.4190 C.3   236  GLY236      0.2260
    107  O         13.7420  -12.3610   32.0220 O.3   236  GLY236     -0.2137
    108  N         11.8060   -2.0520   43.3020 N.3   283  ARG283     -0.1245
    109  CA        12.9000   -1.7630   44.2420 C.3   283  ARG283      0.1563
    110  C         13.0300   -0.2740   44.4810 C.2   283  ARG283      0.2260
    111  O         12.8240    0.5390   43.5630 O.2   283  ARG283     -0.2867
    112  CB        14.2180   -2.2440   43.6580 C.3   283  ARG283      0.0307
    113  CG        14.3640   -3.7350   43.4630 C.3   283  ARG283      0.0489
    114  CD        15.8320   -4.0810   43.2510 C.3   283  ARG283      0.2205
    115  NE        16.1620   -5.4720   43.0480 N.pl3 283  ARG283     -0.0865
    116  CZ        16.2260   -6.3290   44.0810 C.cat 283  ARG283      0.5346
    117  NH1       15.9370   -5.9630   45.3480 N.pl3 283  ARG283      0.1354
    118  NH2       16.5580   -7.5840   43.8510 N.pl3 283  ARG283      0.1354
    119  N         14.0120   -1.4120   38.9770 N.3   296  HIS296     -0.1226
    120  CA        14.3910   -2.7740   39.2370 C.3   296  HIS296      0.1752
    121  C         15.7190   -3.0610   38.5530 C.2   296  HIS296      0.2597
    122  O         16.0880   -2.4160   37.5580 O.2   296  HIS296     -0.2718
    123  CB        13.3010   -3.7570   38.7690 C.3   296  HIS296      0.0759
    124  CG        13.1040   -4.9800   39.5970 C.ar  296  HIS296      0.0818
    125  ND1       13.9860   -6.0650   39.6750 N.ar  296  HIS296     -0.2268
    126  CD2       12.1030   -5.3160   40.4650 C.ar  296  HIS296      0.1154
    127  CE1       13.4740   -6.9510   40.5350 C.ar  296  HIS296      0.1986
    128  NE2       12.3330   -6.5390   41.0530 N.ar  296  HIS296     -0.2212
    129  N         16.4300   -4.0300   39.0860 N.am  297  THR297     -0.1939
    130  CA        17.6090   -4.6430   38.5090 C.3   297  THR297      0.2028
    131  C         17.2460   -5.9540   37.8140 C.2   297  THR297      0.2643
    132  O         16.2210   -6.5920   38.0840 O.2   297  THR297     -0.2714
    133  CB        18.6460   -4.9260   39.6220 C.3   297  THR297      0.1808
    134  OG1       17.9730   -5.5310   40.7290 O.3   297  THR297     -0.2208
    135  CG2       19.2830   -3.6210   40.0580 C.3   297  THR297      0.0379
    136  N         18.1370   -6.3840   36.9210 N.am  298  GLY298     -0.1939
    137  CA        18.0150   -7.6800   36.2750 C.3   298  GLY298      0.2014
    138  C         19.3840   -8.3290   36.1510 C.2   298  GLY298      0.2639
    139  O         20.3560   -7.6670   35.7610 O.2   298  GLY298     -0.2714
    140  N         19.4240   -9.6360   36.4030 N.am  299  THR299     -0.1950
    141  CA        20.5140  -10.4980   36.0800 C.3   299  THR299      0.1897
    142  C         19.9100  -11.7030   35.3400 C.2   299  THR299      0.2313
    143  O         19.1330  -12.4690   35.9360 O.2   299  THR299     -0.2863
    144  CB        21.2710  -11.0020   37.3120 C.3   299  THR299      0.1794
    145  OG1       21.8370   -9.9360   38.0560 O.3   299  THR299     -0.2208
    146  CG2       22.3480  -12.0010   36.9340 C.3   299  THR299      0.0378
    147  N         21.4070  -14.6130   32.1330 N.3   301  GLN301     -0.1245
    148  CA        22.7470  -14.9760   31.6990 C.3   301  GLN301      0.1566
    149  C         23.2390  -14.0980   30.5430 C.2   301  GLN301      0.2260
    150  O         22.6170  -14.0070   29.4740 O.2   301  GLN301     -0.2867
    151  CB        22.7990  -16.4400   31.2890 C.3   301  GLN301      0.0367
    152  CG        22.6730  -17.4060   32.4660 C.3   301  GLN301      0.0905
    153  CD        21.2680  -17.7530   32.8800 C.2   301  GLN301      0.2608
    154  OE1       20.2860  -17.1590   32.4110 O.2   301  GLN301     -0.2717
    155  NE2       21.1530  -18.7120   33.8010 N.am  301  GLN301     -0.0878
    156  N         23.4030   -7.7500   32.6430 N.3   304  TYR304     -0.1241
    157  CA        23.0860   -7.0410   33.8560 C.3   304  TYR304      0.1605
    158  C         22.3960   -5.7180   33.5140 C.2   304  TYR304      0.2264
    159  O         22.9570   -4.9180   32.7730 O.2   304  TYR304     -0.2867
    160  CB        24.3530   -6.7070   34.6310 C.3   304  TYR304      0.0534
    161  CG        25.0460   -7.7780   35.4040 C.ar  304  TYR304     -0.0201
    162  CD1       24.3750   -8.6380   36.2670 C.ar  304  TYR304     -0.0009
    163  CD2       26.4330   -7.8580   35.3720 C.ar  304  TYR304     -0.0009
    164  CE1       25.0000   -9.5900   37.0300 C.ar  304  TYR304      0.0417
    165  CE2       27.0980   -8.7980   36.1670 C.ar  304  TYR304      0.0417
    166  CZ        26.3960   -9.6600   36.9650 C.ar  304  TYR304      0.1957
    167  OH        27.0760  -10.5630   37.7520 O.3   304  TYR304     -0.2866
    168  N         27.3570  -11.4000   32.6230 N.3   324  SER324     -0.1202
    169  CA        26.8470  -11.6840   33.9690 C.3   324  SER324      0.2020
    170  C         27.7860  -12.6660   34.6340 C.2   324  SER324      0.2618
    171  O         28.8820  -12.9560   34.1480 O.2   324  SER324     -0.2717
    172  CB        25.4140  -12.2230   33.9050 C.3   324  SER324      0.2103
    173  OG        25.4390  -13.5320   33.3330 O.3   324  SER324     -0.2182
    174  N         27.4240  -13.1130   35.8540 N.am  325  ASN325     -0.1974
    175  CA        28.3060  -13.8390   36.7370 C.3   325  ASN325      0.1688
    176  C         29.6530  -13.1490   36.8740 C.2   325  ASN325      0.2292
    177  O         30.7050  -13.7730   36.8520 O.2   325  ASN325     -0.2864
    178  CB        28.5090  -15.3090   36.3230 C.3   325  ASN325      0.1181
    179  CG        29.1010  -16.1260   37.4370 C.2   325  ASN325      0.2629
    180  OD1       28.6850  -16.0140   38.6130 O.2   325  ASN325     -0.2716
    181  ND2       30.0410  -17.0000   37.0780 N.am  325  ASN325     -0.0877
    182  N         28.7480   -6.0240   37.9860 N.3   330  LEU330     -0.1245
    183  CA        27.4450   -5.7240   38.5760 C.3   330  LEU330      0.1561
    184  C         27.5700   -4.5060   39.4970 C.2   330  LEU330      0.2260
    185  O         26.7630   -3.5540   39.4480 O.2   330  LEU330     -0.2867
    186  CB        26.9170   -6.9230   39.3510 C.3   330  LEU330      0.0270
    187  CG        25.5690   -6.7100   40.0250 C.3   330  LEU330      0.0019
    188  CD1       24.4640   -6.3620   39.0500 C.3   330  LEU330      0.0001
    189  CD2       25.2180   -7.9990   40.7720 C.3   330  LEU330      0.0001
@<TRIPOS>BOND
     1    69    70    1
     2   150   149    2
     3    72    71    2
     4    73    70    1
     5    73    74    1
     6    70    71    1
     7   149   148    1
     8   151   148    1
     9   151   152    1
    10    76    74    1
    11   148   147    1
    12    74    75    1
    13   107   106    1
    14     1     2    1
    15    93    91   ar
    16    93    94   ar
    17   154   153    2
    18   106   105    1
    19   152   153    1
    20    85    86    1
    21    91    90   ar
    22   168   169    1
    23   156   157    1
    24   159   158    2
    25   153   155   am
    26   173   172    1
    27     2     3    1
    28    94    96   ar
    29    94    92   ar
    30   158   157    1
    31    90    89    1
    32    90    92   ar
    33    96    98   ar
    34   157   160    1
    35   172   169    1
    36    86    89    1
    37    86    87    1
    38   105   104    2
    39     4     3    2
    40   169   170    1
    41   171   170    2
    42     3     5   am
    43    92    95   ar
    44    45    44    2
    45   104   101    1
    46   160   161    1
    47   170   174   am
    48    87    88    2
    49    44    43    1
    50    98    97   ar
    51   142   143    2
    52   142   141    1
    53   163   161   ar
    54   163   165   ar
    55    34    36   ar
    56    34    32   ar
    57   161   162   ar
    58    48    46    1
    59    36    35   ar
    60    95    97   ar
    61     5     6    1
    62    99   100    1
    63   139   138    2
    64   174   175    1
    65   101   102    2
    66   101   100    1
    67    77    78    1
    68   141   140    1
    69   141   144    1
    70   138   137    1
    71   138   140   am
    72   165   166   ar
    73   162   164   ar
    74   137   136    1
    75    32    31   ar
    76   178   175    1
    77   178   179    1
    78    43    46    1
    79    43    42    1
    80    46    47    1
    81   100   103    1
    82     7     6    1
    83     7     8    2
    84     6     9    1
    85   175   176    1
    86    35    33   ar
    87   177   176    2
    88   136   131   am
    89   146   144    1
    90   166   164   ar
    91   166   167    1
    92   181   179   am
    93   144   145    1
    94    78    79    1
    95    78    81    1
    96   179   180    2
    97    79    80    2
    98    31    33   ar
    99    31    30    1
   100   122   121    2
   101   131   132    2
   102   131   130    1
   103   182   183    1
   104     9    10    1
   105    81    82    1
   106    82    83   ar
   107    82    84   ar
   108   130   129    1
   109   130   133    1
   110    30    27    1
   111   121   129   am
   112   121   120    1
   113   183   186    1
   114   183   184    1
   115   123   120    1
   116   123   124    1
   117    27    26    1
   118    27    28    1
   119   119   120    1
   120   188   187    1
   121    25    23    1
   122   186   187    1
   123    67    66    2
   124   185   184    2
   125   124   125   ar
   126   124   126   ar
   127   133   135    1
   128   133   134    1
   129   125   127   ar
   130    28    29    2
   131    28    37   am
   132   187   189    1
   133    66    65    1
   134    66    68   am
   135    23    20    1
   136    23    24    1
   137   126   128   ar
   138   127   128   ar
   139    65    62    1
   140    37    38    1
   141    20    21    1
   142    20    19    1
   143    64    63    2
   144    22    21    2
   145    39    40    2
   146    39    38    1
   147    60    59    1
   148    62    63    1
   149    62    61    1
   150    38    41    1
   151    59    58   ar
   152    59    57   ar
   153    17    16   ar
   154    58    56   ar
   155   115   114    1
   156   115   116    2
   157   114   113    1
   158   108   109    1
   159    57    55   ar
   160   113   112    1
   161   111   110    2
   162    18    16   ar
   163   112   109    1
   164    16    15    1
   165   118   116    1
   166    56    54   ar
   167   116   117    1
   168   109   110    1
   169    13    14    2
   170    13    12    1
   171    55    54   ar
   172    15    12    1
   173    54    53    1
   174    12    11    1
   175    53    50    1
   176    51    52    2
   177    51    50    1
   178    50    49    1
