@<TRIPOS>MOLECULE
tmp/1pwlA00.pdb
 187 189 0 0 0
SMALL
GASTEIGER

@<TRIPOS>ATOM
      1  N         20.4230   20.5700  -10.6060 N.3    21  TRP21      -0.1241
      2  CA        20.9500   19.2190  -10.6530 C.3    21  TRP21       0.1605
      3  C         22.4160   19.2850  -11.1220 C.2    21  TRP21       0.2264
      4  O         22.6970   19.8930  -12.1440 O.2    21  TRP21      -0.2867
      5  CB        20.1190   18.3220  -11.5570 C.3    21  TRP21       0.0550
      6  CG        20.7100   16.9550  -11.7480 C.ar   21  TRP21       0.0003
      7  CD1       21.3220   16.1590  -10.8330 C.ar   21  TRP21       0.0946
      8  CD2       20.7100   16.2200  -12.9880 C.ar   21  TRP21       0.0152
      9  NE1       21.7240   14.9990  -11.4400 N.ar   21  TRP21      -0.2442
     10  CE2       21.3520   15.0070  -12.7570 C.ar   21  TRP21       0.0810
     11  CE3       20.2180   16.5070  -14.2770 C.ar   21  TRP21       0.0012
     12  CZ2       21.5180   14.0610  -13.7950 C.ar   21  TRP21       0.0191
     13  CZ3       20.3710   15.5560  -15.2900 C.ar   21  TRP21       0.0001
     14  CH2       20.9960   14.3720  -15.0250 C.ar   21  TRP21       0.0015
     15  N         17.0330   14.9630   -4.0060 N.3    48  VAL48      -0.1231
     16  CA        17.9630   13.9910   -4.6040 C.3    48  VAL48       0.1692
     17  C         19.2180   14.6760   -5.1620 C.2    48  VAL48       0.2592
     18  O         20.2110   13.9930   -5.3970 O.2    48  VAL48      -0.2718
     19  CB        17.2420   13.1590   -5.6700 C.3    48  VAL48       0.0266
     20  CG1       17.0520   13.9020   -6.9670 C.3    48  VAL48       0.0020
     21  CG2       17.9360   11.8080   -5.9330 C.3    48  VAL48       0.0020
     22  N         19.2010   15.9980   -5.3600 N.am   49  TYR49      -0.1962
     23  CA        20.3740   16.6800   -5.8890 C.3    49  TYR49       0.1771
     24  C         21.4830   16.8770   -4.8630 C.2    49  TYR49       0.2619
     25  O         22.5980   17.2320   -5.2270 O.2    49  TYR49      -0.2715
     26  CB        20.0070   18.0440   -6.5120 C.3    49  TYR49       0.0574
     27  CG        18.9550   17.9930   -7.6130 C.ar   49  TYR49      -0.0198
     28  CD1       18.5880   16.8400   -8.2490 C.ar   49  TYR49      -0.0009
     29  CD2       18.3240   19.1940   -7.9870 C.ar   49  TYR49      -0.0009
     30  CE1       17.6240   16.8120   -9.2360 C.ar   49  TYR49       0.0417
     31  CE2       17.3500   19.1620   -8.9840 C.ar   49  TYR49       0.0417
     32  CZ        16.9960   17.9970   -9.6000 C.ar   49  TYR49       0.1957
     33  OH        16.0010   17.9850  -10.5450 O.3    49  TYR49      -0.2866
     34  N         21.1820   16.6420   -3.5830 N.am   50  GLN50      -0.1977
     35  CA        22.1820   16.6100   -2.5230 C.3    50  GLN50       0.1601
     36  C         22.8470   17.9430   -2.2790 C.2    50  GLN50       0.2287
     37  O         23.9570   18.0040   -1.7560 O.2    50  GLN50      -0.2864
     38  CB        23.2770   15.5290   -2.7790 C.3    50  GLN50       0.0394
     39  CG        22.6890   14.1440   -2.8380 C.3    50  GLN50       0.0908
     40  CD        23.7430   13.0860   -2.8430 C.2    50  GLN50       0.2608
     41  OE1       24.4620   12.9290   -1.8140 O.2    50  GLN50      -0.2717
     42  NE2       23.9330   12.3640   -3.9070 N.am   50  GLN50      -0.0878
     43  N         11.3100   12.8410   -3.4600 N.3    80  TRP80      -0.1241
     44  CA        12.0340   11.7480   -4.0890 C.3    80  TRP80       0.1605
     45  C         11.2690   10.4350   -3.9930 C.2    80  TRP80       0.2264
     46  O         10.3700   10.2350   -3.1780 O.2    80  TRP80      -0.2867
     47  CB        13.5120   11.6870   -3.5310 C.3    80  TRP80       0.0550
     48  CG        14.2490   10.6200   -4.3040 C.ar   80  TRP80       0.0003
     49  CD1       14.7360    9.4380   -3.8610 C.ar   80  TRP80       0.0946
     50  CD2       14.4840   10.6350   -5.7260 C.ar   80  TRP80       0.0152
     51  NE1       15.2720    8.7200   -4.8930 N.ar   80  TRP80      -0.2442
     52  CE2       15.1310    9.4310   -6.0520 C.ar   80  TRP80       0.0810
     53  CE3       14.2250   11.5520   -6.7580 C.ar   80  TRP80       0.0012
     54  CZ2       15.5020    9.1090   -7.3250 C.ar   80  TRP80       0.0191
     55  CZ3       14.6050   11.2340   -8.0370 C.ar   80  TRP80       0.0001
     56  CH2       15.2520   10.0300   -8.3220 C.ar   80  TRP80       0.0015
     57  N          8.5250   13.8220   -7.8780 N.3   111  HIS111     -0.1226
     58  CA         9.6600   13.8740   -8.8280 C.3   111  HIS111      0.1752
     59  C          9.5000   12.8950   -9.9760 C.2   111  HIS111      0.2596
     60  O          9.8260   13.2400  -11.1320 O.2   111  HIS111     -0.2718
     61  CB        10.9410   13.6440   -8.0430 C.3   111  HIS111      0.0759
     62  CG        12.2000   14.1900   -8.6500 C.ar  111  HIS111      0.0818
     63  ND1       13.2210   14.6620   -7.8560 N.ar  111  HIS111     -0.2268
     64  CD2       12.5670   14.2670   -9.9550 C.ar  111  HIS111      0.1154
     65  CE1       14.1690   15.0260   -8.6810 C.ar  111  HIS111      0.1986
     66  NE2       13.8330   14.8160   -9.9610 N.ar  111  HIS111     -0.2212
     67  N          9.0430   11.6790   -9.6850 N.am  112  TRP112     -0.1976
     68  CA         8.7410   10.6490  -10.6710 C.3   112  TRP112      0.1640
     69  C          7.4920    9.9310  -10.2110 C.2   112  TRP112      0.2290
     70  O          7.2370    9.8300   -9.0100 O.2   112  TRP112     -0.2864
     71  CB         9.8890    9.5730  -10.7720 C.3   112  TRP112      0.0576
     72  CG        11.1260   10.1730  -11.3650 C.ar  112  TRP112      0.0006
     73  CD1       12.1000   10.8510  -10.7440 C.ar  112  TRP112      0.0946
     74  CD2       11.4820   10.1460  -12.7580 C.ar  112  TRP112      0.0152
     75  NE1       13.0540   11.2900  -11.6360 N.ar  112  TRP112     -0.2442
     76  CE2       12.6840   10.8580  -12.8950 C.ar  112  TRP112      0.0810
     77  CE3       10.9200    9.6000  -13.8930 C.ar  112  TRP112      0.0012
     78  CZ2       13.2880   11.0500  -14.1130 C.ar  112  TRP112      0.0191
     79  CZ3       11.5200    9.7870  -15.1190 C.ar  112  TRP112      0.0001
     80  CH2       12.7090   10.5000  -15.2350 C.ar  112  TRP112      0.0015
     81  N          7.1040    6.7940  -10.0580 N.3   114  THR114     -0.1218
     82  CA         7.5800    5.5510   -9.5160 C.3   114  THR114      0.1862
     83  C          7.9990    5.6640   -8.0290 C.2   114  THR114      0.2287
     84  O          8.9270    6.4000   -7.7330 O.2   114  THR114     -0.2866
     85  CB         8.7860    5.0670  -10.3370 C.3   114  THR114      0.1770
     86  OG1        9.7590    6.1070  -10.3740 O.3   114  THR114     -0.2211
     87  CG2        8.4110    4.7510  -11.7710 C.3   114  THR114      0.0375
     88  N          9.9680    3.9730   -4.9310 N.3   116  PHE116     -0.1241
     89  CA        11.0660    3.0700   -4.6630 C.3   116  PHE116      0.1605
     90  C         11.0480    2.6740   -3.1950 C.2   116  PHE116      0.2264
     91  O         10.5720    3.4090   -2.3470 O.2   116  PHE116     -0.2867
     92  CB        12.4120    3.7100   -4.9490 C.3   116  PHE116      0.0534
     93  CG        12.7380    4.1590   -6.3520 C.ar  116  PHE116     -0.0203
     94  CD1       11.9380    3.8670   -7.4500 C.ar  116  PHE116     -0.0042
     95  CD2       13.8910    4.9130   -6.5330 C.ar  116  PHE116     -0.0042
     96  CE1       12.2960    4.3620   -8.6850 C.ar  116  PHE116     -0.0003
     97  CE2       14.2500    5.3810   -7.7920 C.ar  116  PHE116     -0.0003
     98  CZ        13.4390    5.1140   -8.8770 C.ar  116  PHE116     -0.0000
     99  N         18.6010    5.1260   -4.9550 N.3   123  PHE123     -0.1241
    100  CA        18.3420    4.1960   -6.0310 C.3   123  PHE123      0.1605
    101  C         18.5620    2.7850   -5.4870 C.2   123  PHE123      0.2264
    102  O         19.6140    2.1560   -5.7620 O.2   123  PHE123     -0.2867
    103  CB        19.2160    4.4500   -7.2740 C.3   123  PHE123      0.0534
    104  CG        18.8600    5.7370   -7.9510 C.ar  123  PHE123     -0.0203
    105  CD1       19.4360    6.9280   -7.5670 C.ar  123  PHE123     -0.0042
    106  CD2       17.9210    5.7780   -8.9460 C.ar  123  PHE123     -0.0042
    107  CE1       19.1130    8.1330   -8.1530 C.ar  123  PHE123     -0.0003
    108  CE2       17.6040    6.9740   -9.5860 C.ar  123  PHE123     -0.0003
    109  CZ        18.1940    8.1330   -9.1640 C.ar  123  PHE123     -0.0000
    110  N          7.5790   14.1660  -14.8640 N.3   161  ASN161     -0.1240
    111  CA         7.7900   12.9130  -15.5880 C.3   161  ASN161      0.1653
    112  C          6.5420   12.0290  -15.5890 C.2   161  ASN161      0.2266
    113  O          6.6560   10.8030  -15.6300 O.2   161  ASN161     -0.2867
    114  CB         8.9740   12.1180  -15.0580 C.3   161  ASN161      0.1155
    115  CG        10.2450   12.9090  -15.0820 C.2   161  ASN161      0.2627
    116  OD1       10.7180   13.2510  -16.1730 O.2   161  ASN161     -0.2716
    117  ND2       10.7780   13.2250  -13.9250 N.am  161  ASN161     -0.0877
    118  N         12.4860   20.7970  -18.6510 N.3   210  TYR210     -0.1241
    119  CA        13.7980   20.5350  -18.0630 C.3   210  TYR210      0.1605
    120  C         14.7670   20.0460  -19.1490 C.2   210  TYR210      0.2264
    121  O         14.4050   19.6810  -20.2690 O.2   210  TYR210     -0.2867
    122  CB        13.6670   19.5780  -16.9140 C.3   210  TYR210      0.0534
    123  CG        13.4690   18.1200  -17.0450 C.ar  210  TYR210     -0.0201
    124  CD1       14.3880   17.2720  -17.6800 C.ar  210  TYR210     -0.0009
    125  CD2       12.3930   17.4780  -16.4400 C.ar  210  TYR210     -0.0009
    126  CE1       14.2220   15.9270  -17.7550 C.ar  210  TYR210      0.0417
    127  CE2       12.2450   16.1020  -16.4300 C.ar  210  TYR210      0.0417
    128  CZ        13.1570   15.3160  -17.0830 C.ar  210  TYR210      0.1957
    129  OH        13.1130   13.9550  -17.0570 O.3   210  TYR210     -0.2866
    130  N         25.3970   12.1840  -16.3110 N.3   219  PRO219     -0.2102
    131  CA        26.4630   11.1930  -16.0260 C.3   219  PRO219      0.1504
    132  C         26.4550    9.9790  -16.9380 C.2   219  PRO219      0.2575
    133  O         27.4010    9.1820  -16.9450 O.2   219  PRO219     -0.2718
    134  CB        26.2820   10.7690  -14.5830 C.3   219  PRO219      0.0282
    135  CG        24.8850   11.1730  -14.2500 C.3   219  PRO219      0.0208
    136  CD        24.4920   12.2960  -15.1760 C.3   219  PRO219      0.0893
    137  N         25.4810    9.7670  -17.7310 N.am  220  TRP220     -0.1977
    138  CA        25.3540    8.5750  -18.5750 C.3   220  TRP220      0.1640
    139  C         25.5360    8.9260  -20.0390 C.2   220  TRP220      0.2290
    140  O         25.2490    8.1080  -20.9360 O.2   220  TRP220     -0.2864
    141  CB        24.0310    7.7930  -18.3020 C.3   220  TRP220      0.0576
    142  CG        22.8920    8.7440  -18.3780 C.ar  220  TRP220      0.0006
    143  CD1       22.3230    9.2330  -19.5270 C.ar  220  TRP220      0.0946
    144  CD2       22.1760    9.3660  -17.3070 C.ar  220  TRP220      0.0152
    145  NE1       21.3060   10.0880  -19.2350 N.ar  220  TRP220     -0.2442
    146  CE2       21.1820   10.1980  -17.8700 C.ar  220  TRP220      0.0810
    147  CE3       22.2290    9.2800  -15.9070 C.ar  220  TRP220      0.0012
    148  CZ2       20.3340   10.9320  -17.0700 C.ar  220  TRP220      0.0191
    149  CZ3       21.3690   10.0200  -15.1210 C.ar  220  TRP220      0.0001
    150  CH2       20.4190   10.8330  -15.7090 C.ar  220  TRP220      0.0015
    151  N         16.8860   11.8510  -20.0870 N.3   299  CYS299     -0.1221
    152  CA        16.5980   11.3610  -18.7600 C.3   299  CYS299      0.1808
    153  C         15.6790   10.1400  -18.8800 C.2   299  CYS299      0.2601
    154  O         14.4430   10.2080  -19.0300 O.2   299  CYS299     -0.2717
    155  CB        16.0020   12.4120  -17.8450 C.3   299  CYS299      0.0970
    156  SG        17.1920   13.6620  -17.3520 S.3   299  CYS299     -0.0800
    157  N         16.3330    8.9860  -18.7700 N.am  300  ALA300     -0.1965
    158  CA        15.7850    7.6740  -18.8200 C.3   300  ALA300      0.1728
    159  C         16.7480    6.8150  -17.9780 C.2   300  ALA300      0.2616
    160  O         17.9280    7.1670  -17.8270 O.2   300  ALA300     -0.2715
    161  CB        15.6470    7.1520  -20.2160 C.3   300  ALA300      0.0334
    162  N         16.3140    5.7170  -17.4630 N.am  301  LEU301     -0.1977
    163  CA        17.2030    4.9170  -16.5930 C.3   301  LEU301      0.1596
    164  C         16.8150    3.4500  -16.7230 C.2   301  LEU301      0.2287
    165  O         15.7460    3.0570  -16.3110 O.2   301  LEU301     -0.2864
    166  CB        17.1950    5.4500  -15.1580 C.3   301  LEU301      0.0297
    167  CG        18.2680    4.9410  -14.1840 C.3   301  LEU301      0.0022
    168  CD1       19.6450    5.3530  -14.6690 C.3   301  LEU301      0.0001
    169  CD2       17.9980    5.4890  -12.8070 C.3   301  LEU301      0.0001
    170  N         15.1450    1.2120  -14.0570 N.3   304  CYS304     -0.1235
    171  CA        13.8290    1.5470  -13.5960 C.3   304  CYS304      0.1677
    172  C         12.7520    1.1550  -14.6100 C.2   304  CYS304      0.2270
    173  O         11.5670    1.2830  -14.3470 O.2   304  CYS304     -0.2867
    174  CB        13.7470    3.0430  -13.2820 C.3   304  CYS304      0.0956
    175  SG        14.7530    3.5250  -11.8770 S.3   304  CYS304     -0.0801
    176  N          6.7620    3.0680  -14.5250 N.3   310  TYR310     -0.1241
    177  CA         7.7570    3.7590  -15.3540 C.3   310  TYR310      0.1605
    178  C          7.0770    4.5190  -16.4690 C.2   310  TYR310      0.2264
    179  O          6.2070    3.9600  -17.1200 O.2   310  TYR310     -0.2867
    180  CB         8.7570    2.7990  -15.9720 C.3   310  TYR310      0.0534
    181  CG         9.9430    3.4410  -16.6270 C.ar  310  TYR310     -0.0201
    182  CD1       10.9600    4.0090  -15.8690 C.ar  310  TYR310     -0.0009
    183  CD2       10.0540    3.4630  -18.0200 C.ar  310  TYR310     -0.0009
    184  CE1       12.0480    4.5930  -16.4790 C.ar  310  TYR310      0.0417
    185  CE2       11.1680    4.0420  -18.6150 C.ar  310  TYR310      0.0417
    186  CZ        12.1590    4.6010  -17.8500 C.ar  310  TYR310      0.1957
    187  OH        13.2670    5.1670  -18.4430 O.3   310  TYR310     -0.2866
@<TRIPOS>BOND
     1   140   139    2
     2   121   120    2
     3   161   158    1
     4   151   152    1
     5   139   138    1
     6   143   145   ar
     7   143   142   ar
     8   145   146   ar
     9   120   119    1
    10   154   153    2
    11   153   157   am
    12   153   152    1
    13   158   157    1
    14   158   159    1
    15   152   155    1
    16   118   119    1
    17   185   183   ar
    18   185   186   ar
    19   138   141    1
    20   138   137    1
    21   187   186    1
    22   142   141    1
    23   142   144   ar
    24   119   122    1
    25   183   181   ar
    26   159   160    2
    27   159   162   am
    28   146   144   ar
    29   146   148   ar
    30   186   184   ar
    31   155   156    1
    32   126   124   ar
    33   126   128   ar
    34   137   132   am
    35   124   123   ar
    36   162   163    1
    37   144   147   ar
    38   179   178    2
    39   128   129    1
    40   128   127   ar
    41   148   150   ar
    42   123   122    1
    43   123   125   ar
    44   133   132    2
    45   132   131    1
    46   164   163    1
    47   164   165    2
    48   181   180    1
    49   181   182   ar
    50   163   166    1
    51   184   182   ar
    52   178   177    1
    53   125   127   ar
    54   130   131    1
    55   130   136    1
    56   116   115    2
    57   131   134    1
    58   180   177    1
    59   147   149   ar
    60   150   149   ar
    61   113   112    2
    62   112   111    1
    63   111   114    1
    64   111   110    1
    65   177   176    1
    66    13    14   ar
    67    13    11   ar
    68    80    79   ar
    69    80    78   ar
    70   136   135    1
    71   166   167    1
    72    79    77   ar
    73   115   114    1
    74   115   117   am
    75    14    12   ar
    76   168   167    1
    77   172   173    2
    78   172   171    1
    79   134   135    1
    80    11     8   ar
    81   167   169    1
    82    78    76   ar
    83   170   171    1
    84    77    74   ar
    85    12    10   ar
    86   171   174    1
    87   174   175    1
    88     8    10   ar
    89     8     6   ar
    90    76    74   ar
    91    76    75   ar
    92    74    72   ar
    93    10     9   ar
    94     4     3    2
    95    87    85    1
    96     6     5    1
    97     6     7   ar
    98    75    73   ar
    99     5     2    1
   100     9     7   ar
   101    72    71    1
   102    72    73   ar
   103    60    59    2
   104     3     2    1
   105    71    68    1
   106    68    69    1
   107    68    67    1
   108     2     1    1
   109    33    32    1
   110    86    85    1
   111    85    82    1
   112    69    70    2
   113    81    82    1
   114    59    67   am
   115    59    58    1
   116    66    64   ar
   117    66    65   ar
   118    64    62   ar
   119    32    30   ar
   120    32    31   ar
   121   108   109   ar
   122   108   106   ar
   123    82    83    1
   124    30    28   ar
   125   109   107   ar
   126    31    29   ar
   127   106   104   ar
   128    98    96   ar
   129    98    97   ar
   130    58    61    1
   131    58    57    1
   132    96    94   ar
   133    65    63   ar
   134    62    61    1
   135    62    63   ar
   136    56    55   ar
   137    56    54   ar
   138    28    27   ar
   139   107   105   ar
   140    55    53   ar
   141    83    84    2
   142    29    27   ar
   143   104   105   ar
   144   104   103    1
   145    97    95   ar
   146    27    26    1
   147    94    93   ar
   148    54    52   ar
   149   103   100    1
   150    20    19    1
   151    53    50   ar
   152    95    93   ar
   153    26    23    1
   154    93    92    1
   155    52    50   ar
   156    52    51   ar
   157   100   101    1
   158   100    99    1
   159    21    19    1
   160    23    22    1
   161    23    24    1
   162   102   101    2
   163    50    48   ar
   164    19    16    1
   165    18    17    2
   166    22    17   am
   167    25    24    2
   168    17    16    1
   169    92    89    1
   170    88    89    1
   171    51    49   ar
   172    24    34   am
   173    89    90    1
   174    16    15    1
   175    48    49   ar
   176    48    47    1
   177    44    45    1
   178    44    47    1
   179    44    43    1
   180    45    46    2
   181    42    40   am
   182    34    35    1
   183    90    91    2
   184    40    39    1
   185    40    41    2
   186    39    38    1
   187    38    35    1
   188    35    36    1
   189    36    37    2
