@<TRIPOS>MOLECULE
tmp/1pwpA00.pdb
 151 147 0 0 0
SMALL
GASTEIGER

@<TRIPOS>ATOM
      1  N         94.8360   32.9120  132.7950 N.3   299  ASP299     -0.1225
      2  CA        93.4280   32.5690  132.7150 C.3   299  ASP299      0.1805
      3  C         92.5910   33.7360  132.2070 C.2   299  ASP299      0.2597
      4  O         91.8790   34.3910  132.9690 O.2   299  ASP299     -0.2718
      5  CB        92.9090   32.1160  134.0790 C.3   299  ASP299      0.1424
      6  CG        91.4640   31.6530  134.0260 C.2   299  ASP299      0.3668
      7  OD1       90.5710   32.5030  133.8260 O.co2 299  ASP299     -0.2456
      8  OD2       91.2210   30.4370  134.1760 O.co2 299  ASP299     -0.2456
      9  N         92.7100   33.9960  130.9110 N.am  300  PHE300     -0.1976
     10  CA        91.9610   35.0450  130.2290 C.3   300  PHE300      0.1639
     11  C         92.2590   34.9050  128.7390 C.2   300  PHE300      0.2290
     12  O         91.8210   35.7090  127.9120 O.2   300  PHE300     -0.2864
     13  CB        92.3200   36.4450  130.7690 C.3   300  PHE300      0.0560
     14  CG        93.7910   36.7500  130.7920 C.ar  300  PHE300     -0.0200
     15  CD1       94.4960   36.9680  129.6110 C.ar  300  PHE300     -0.0042
     16  CD2       94.4710   36.8390  132.0010 C.ar  300  PHE300     -0.0042
     17  CE1       95.8600   37.2720  129.6350 C.ar  300  PHE300     -0.0003
     18  CE2       95.8330   37.1420  132.0370 C.ar  300  PHE300     -0.0003
     19  CZ        96.5280   37.3590  130.8500 C.ar  300  PHE300     -0.0000
     20  N         96.2430   39.9510  123.6770 N.3   336  LYS336     -0.1245
     21  CA        94.9150   39.4120  123.4370 C.3   336  LYS336      0.1561
     22  C         94.2080   40.3260  122.4270 C.2   336  LYS336      0.2260
     23  O         93.5880   39.8450  121.4800 O.2   336  LYS336     -0.2867
     24  CB        94.1330   39.3380  124.7460 C.3   336  LYS336      0.0271
     25  CG        92.8690   38.5000  124.6710 C.3   336  LYS336      0.0035
     26  CD        92.1140   38.5660  125.9910 C.3   336  LYS336      0.0206
     27  CE        90.7600   37.8970  125.9100 C.3   336  LYS336      0.1093
     28  NZ        90.0260   38.0590  127.1970 N.3   336  LYS336     -0.1314
     29  N         87.4420   43.7900  131.0290 N.3   609  VAL609     -0.1231
     30  CA        86.9790   42.4830  131.4400 C.3   609  VAL609      0.1692
     31  C         85.6490   42.1490  130.7740 C.2   609  VAL609      0.2592
     32  O         84.7410   42.9920  130.6880 O.2   609  VAL609     -0.2718
     33  CB        86.7930   42.4140  132.9810 C.3   609  VAL609      0.0266
     34  CG1       86.1810   41.0800  133.3810 C.3   609  VAL609      0.0020
     35  CG2       88.1210   42.5930  133.6670 C.3   609  VAL609      0.0020
     36  N         85.5480   40.9210  130.2840 N.am  610  HIS610     -0.1962
     37  CA        84.3130   40.4660  129.6860 C.3   610  HIS610      0.1787
     38  C         83.9560   39.1300  130.3080 C.2   610  HIS610      0.2621
     39  O         84.7850   38.2260  130.3690 O.2   610  HIS610     -0.2715
     40  CB        84.4450   40.2980  128.1830 C.3   610  HIS610      0.0785
     41  CG        83.2550   39.6430  127.5600 C.ar  610  HIS610      0.0821
     42  ND1       81.9660   40.0730  127.7970 N.ar  610  HIS610     -0.2267
     43  CD2       83.1500   38.5580  126.7600 C.ar  610  HIS610      0.1154
     44  CE1       81.1170   39.2790  127.1720 C.ar  610  HIS610      0.1986
     45  NE2       81.8090   38.3510  126.5360 N.ar  610  HIS610     -0.2212
     46  N         82.7240   39.0000  130.7780 N.am  611  SER611     -0.1936
     47  CA        82.3070   37.7530  131.3790 C.3   611  SER611      0.2055
     48  C         80.8190   37.7840  131.6300 C.2   611  SER611      0.2643
     49  O         80.1500   38.7340  131.2660 O.2   611  SER611     -0.2714
     50  CB        83.0430   37.5420  132.6850 C.3   611  SER611      0.2130
     51  OG        82.7870   38.6250  133.5550 O.3   611  SER611     -0.2179
     52  N         80.3030   36.7480  132.2690 N.am  612  LYS612     -0.1963
     53  CA        78.8810   36.6630  132.5380 C.3   612  LYS612      0.1728
     54  C         78.3760   37.8680  133.3390 C.2   612  LYS612      0.2617
     55  O         77.3020   38.4160  133.0810 O.2   612  LYS612     -0.2715
     56  CB        78.5990   35.3640  133.3000 C.3   612  LYS612      0.0311
     57  CG        77.2800   34.7240  132.9740 C.3   612  LYS612      0.0038
     58  CD        76.1120   35.6300  133.2830 C.3   612  LYS612      0.0206
     59  CE        74.8600   35.0560  132.6250 C.3   612  LYS612      0.1093
     60  NZ        75.1670   34.5360  131.2540 N.3   612  LYS612     -0.1314
     61  N         79.1520   38.2720  134.3300 N.am  613  GLY613     -0.1940
     62  CA        78.7480   39.3900  135.1500 C.3   613  GLY613      0.2014
     63  C         79.9870   40.1270  135.5850 C.2   613  GLY613      0.2639
     64  O         81.1110   39.6720  135.3340 O.2   613  GLY613     -0.2714
     65  N         79.7860   41.2650  136.2400 N.am  614  LEU614     -0.1963
     66  CA        80.8930   42.0770  136.7060 C.3   614  LEU614      0.1728
     67  C         80.3480   43.1980  137.5410 C.2   614  LEU614      0.2616
     68  O         79.2640   43.7130  137.2660 O.2   614  LEU614     -0.2715
     69  CB        81.6420   42.6820  135.5230 C.3   614  LEU614      0.0311
     70  CG        82.7880   43.6370  135.8590 C.3   614  LEU614      0.0022
     71  CD1       84.0460   42.8250  136.1460 C.3   614  LEU614      0.0001
     72  CD2       83.0270   44.5990  134.7000 C.3   614  LEU614      0.0001
     73  N         81.1020   43.5640  138.5700 N.am  615  TYR615     -0.1974
     74  CA        80.7340   44.6760  139.4380 C.3   615  TYR615      0.1639
     75  C         81.8460   45.7110  139.3230 C.2   615  TYR615      0.2290
     76  O         83.0330   45.3850  139.3920 O.2   615  TYR615     -0.2864
     77  CB        80.5910   44.2320  140.8890 C.3   615  TYR615      0.0560
     78  CG        80.2490   45.3740  141.8030 C.ar  615  TYR615     -0.0198
     79  CD1       79.0660   46.0890  141.6380 C.ar  615  TYR615     -0.0009
     80  CD2       81.1170   45.7610  142.8160 C.ar  615  TYR615     -0.0009
     81  CE1       78.7540   47.1650  142.4580 C.ar  615  TYR615      0.0417
     82  CE2       80.8190   46.8360  143.6430 C.ar  615  TYR615      0.0417
     83  CZ        79.6370   47.5350  143.4570 C.ar  615  TYR615      0.1957
     84  OH        79.3480   48.6190  144.2550 O.3   615  TYR615     -0.2866
     85  N         83.2030   48.9700  141.0730 N.3   617  PRO617     -0.2116
     86  CA        83.1850   49.8550  142.2440 C.3   617  PRO617      0.1372
     87  C         83.2150   51.3350  141.8690 C.2   617  PRO617      0.2244
     88  O         82.4530   52.1220  142.4160 O.2   617  PRO617     -0.2868
     89  CB        84.4160   49.4070  143.0330 C.3   617  PRO617      0.0268
     90  CG        85.3230   48.8400  141.9730 C.3   617  PRO617      0.0207
     91  CD        84.3690   48.0700  141.1200 C.3   617  PRO617      0.0892
     92  N         80.5460   30.0220  133.8760 N.3   631  VAL631     -0.1245
     93  CA        81.2020   28.7400  134.1100 C.3   631  VAL631      0.1561
     94  C         80.7000   27.9220  135.2970 C.2   631  VAL631      0.2260
     95  O         80.3160   26.7600  135.1330 O.2   631  VAL631     -0.2867
     96  CB        82.7250   28.9130  134.2490 C.3   631  VAL631      0.0252
     97  CG1       83.4150   27.5820  133.9390 C.3   631  VAL631      0.0019
     98  CG2       83.2160   30.0150  133.3090 C.3   631  VAL631      0.0019
     99  N         77.2630   38.8880  141.7830 N.3   643  GLU643     -0.1245
    100  CA        77.7760   40.2400  141.6160 C.3   643  GLU643      0.1567
    101  C         77.2330   41.1540  142.6930 C.2   643  GLU643      0.2260
    102  O         77.8460   42.1600  143.0200 O.2   643  GLU643     -0.2867
    103  CB        77.3990   40.7860  140.2490 C.3   643  GLU643      0.0388
    104  CG        77.8320   39.8890  139.1170 C.3   643  GLU643      0.1160
    105  CD        79.3330   39.7760  138.9920 C.2   643  GLU643      0.3649
    106  OE1       79.7890   38.9010  138.2280 O.co2 643  GLU643     -0.2457
    107  OE2       80.0590   40.5580  139.6410 O.co2 643  GLU643     -0.2457
    108  N         79.6660   41.2100  145.5600 N.3   646  HIS646     -0.1241
    109  CA        80.7450   42.1830  145.4510 C.3   646  HIS646      0.1621
    110  C         80.2390   43.5570  145.8750 C.2   646  HIS646      0.2264
    111  O         80.9790   44.3470  146.4550 O.2   646  HIS646     -0.2867
    112  CB        81.2400   42.2530  144.0150 C.3   646  HIS646      0.0745
    113  CG        81.9360   41.0150  143.5510 C.ar  646  HIS646      0.0817
    114  ND1       83.2590   40.7580  143.8340 N.ar  646  HIS646     -0.2268
    115  CD2       81.5090   39.9870  142.7820 C.ar  646  HIS646      0.1154
    116  CE1       83.6200   39.6280  143.2520 C.ar  646  HIS646      0.1986
    117  NE2       82.5760   39.1400  142.6080 N.ar  646  HIS646     -0.2212
    118  N         87.3240   47.4910  150.7000 N.3   663  LEU663     -0.1245
    119  CA        86.6090   46.2200  150.7930 C.3   663  LEU663      0.1561
    120  C         86.7240   45.4920  152.1320 C.2   663  LEU663      0.2260
    121  O         87.8180   45.2640  152.6410 O.2   663  LEU663     -0.2867
    122  CB        87.0690   45.2800  149.6710 C.3   663  LEU663      0.0270
    123  CG        86.7960   45.6650  148.2120 C.3   663  LEU663      0.0019
    124  CD1       87.4670   44.6620  147.2920 C.3   663  LEU663      0.0001
    125  CD2       85.3000   45.7010  147.9530 C.3   663  LEU663      0.0001
    126  N         85.8190   28.4180  141.2230 N.3   684  TYR684     -0.1241
    127  CA        85.8200   29.8410  140.9130 C.3   684  TYR684      0.1605
    128  C         85.9780   30.6420  142.1920 C.2   684  TYR684      0.2264
    129  O         86.7110   31.6310  142.2280 O.2   684  TYR684     -0.2867
    130  CB        84.5100   30.2270  140.2130 C.3   684  TYR684      0.0534
    131  CG        84.3670   31.7050  139.8950 C.ar  684  TYR684     -0.0201
    132  CD1       85.4080   32.4190  139.2990 C.ar  684  TYR684     -0.0009
    133  CD2       83.1750   32.3780  140.1600 C.ar  684  TYR684     -0.0009
    134  CE1       85.2660   33.7680  138.9730 C.ar  684  TYR684      0.0417
    135  CE2       83.0190   33.7220  139.8370 C.ar  684  TYR684      0.0417
    136  CZ        84.0680   34.4120  139.2440 C.ar  684  TYR684      0.1957
    137  OH        83.9100   35.7430  138.9200 O.3   684  TYR684     -0.2866
    138  N         87.9570   38.3330  147.3370 N.3   690  ALA690     -0.1231
    139  CA        86.7890   39.0740  146.8740 C.3   690  ALA690      0.1694
    140  C         85.7980   38.1390  146.1900 C.2   690  ALA690      0.2591
    141  O         84.5870   38.2460  146.3870 O.2   690  ALA690     -0.2718
    142  CB        87.2080   40.1770  145.9190 C.3   690  ALA690      0.0304
    143  N         86.3210   37.2150  145.3920 N.am  691  GLU691     -0.1979
    144  CA        85.4890   36.2580  144.6740 C.3   691  GLU691      0.1602
    145  C         84.9630   35.1730  145.6090 C.2   691  GLU691      0.2287
    146  O         83.7970   34.7800  145.5340 O.2   691  GLU691     -0.2864
    147  CB        86.2940   35.6280  143.5360 C.3   691  GLU691      0.0415
    148  CG        86.7760   36.6240  142.4880 C.3   691  GLU691      0.1163
    149  CD        85.6360   37.2880  141.7480 C.2   691  GLU691      0.3649
    150  OE1       84.7250   36.5600  141.3170 O.co2 691  GLU691     -0.2457
    151  OE2       85.6490   38.5270  141.5860 O.co2 691  GLU691     -0.2457
@<TRIPOS>BOND
     1    23    22    2
     2    22    21    1
     3    21    20    1
     4    21    24    1
     5    25    24    1
     6    25    26    1
     7    27    26    1
     8    27    28    1
     9    45    43   ar
    10    45    44   ar
    11    43    41   ar
    12    44    42   ar
    13    41    42   ar
    14    41    40    1
    15    12    11    2
    16    40    37    1
    17    11    10    1
    18    15    17   ar
    19    15    14   ar
    20    17    19   ar
    21    37    36    1
    22    37    38    1
    23    10    13    1
    24    10     9    1
    25    36    31   am
    26    38    39    2
    27    38    46   am
    28    32    31    2
    29    13    14    1
    30    31    30    1
    31    46    47    1
    32    14    16   ar
    33    19    18   ar
    34     9     3   am
    35    29    30    1
    36    60    59    1
    37    49    48    2
    38    47    48    1
    39    47    50    1
    40    30    33    1
    41    48    52   am
    42    16    18   ar
    43     3     2    1
    44     3     4    2
    45    52    53    1
    46    53    56    1
    47    53    54    1
    48    59    58    1
    49    50    51    1
    50     2     1    1
    51     2     5    1
    52    57    58    1
    53    57    56    1
    54    33    34    1
    55    33    35    1
    56    55    54    2
    57    98    96    1
    58    54    61   am
    59     7     6   ar
    60    92    93    1
    61    97    96    1
    62     6     5    1
    63     6     8   ar
    64    93    96    1
    65    93    94    1
    66    61    62    1
    67    72    70    1
    68    95    94    2
    69    62    63    1
    70    64    63    2
    71    69    70    1
    72    69    66    1
    73    63    65   am
    74    70    71    1
    75    65    66    1
    76    66    67    1
    77    68    67    2
    78    67    73   am
    79   106   105   ar
    80    73    74    1
    81   137   136    1
    82   134   136   ar
    83   134   132   ar
    84   105   104    1
    85   105   107   ar
    86   104   103    1
    87   136   135   ar
    88   132   131   ar
    89    75    76    2
    90    75    74    1
    91    74    77    1
    92   135   133   ar
    93   131   133   ar
    94   131   130    1
    95   130   127    1
    96   103   100    1
    97    77    78    1
    98   127   126    1
    99   127   128    1
   100    85    91    1
   101    85    86    1
   102    91    90    1
   103   150   149   ar
   104   151   149   ar
   105   100    99    1
   106   100   101    1
   107    79    78   ar
   108    79    81   ar
   109   149   148    1
   110    78    80   ar
   111    87    86    1
   112    87    88    2
   113    90    89    1
   114   128   129    2
   115    86    89    1
   116    81    83   ar
   117   148   147    1
   118   117   115   ar
   119   117   116   ar
   120   101   102    2
   121   115   113   ar
   122    80    82   ar
   123   116   114   ar
   124    83    82   ar
   125    83    84    1
   126   147   144    1
   127   113   114   ar
   128   113   112    1
   129   112   109    1
   130   144   143    1
   131   144   145    1
   132   143   140   am
   133   109   108    1
   134   109   110    1
   135   146   145    2
   136   110   111    2
   137   142   139    1
   138   140   141    2
   139   140   139    1
   140   139   138    1
   141   124   123    1
   142   125   123    1
   143   123   122    1
   144   122   119    1
   145   118   119    1
   146   119   120    1
   147   120   121    2
