@<TRIPOS>MOLECULE
tmp/1pwqB00.pdb
 190 185 0 0 0
SMALL
GASTEIGER

@<TRIPOS>ATOM
      1  N         96.5330   -5.1550  119.9320 N.3   611  VAL611     -0.1231
      2  CA        96.9300   -3.7860  119.7170 C.3   611  VAL611      0.1692
      3  C         96.4770   -3.3820  118.3400 C.2   611  VAL611      0.2592
      4  O         96.6220   -4.1390  117.3890 O.2   611  VAL611     -0.2718
      5  CB        98.4510   -3.6220  119.7970 C.3   611  VAL611      0.0266
      6  CG1       98.8070   -2.1700  119.9130 C.3   611  VAL611      0.0020
      7  CG2       98.9870   -4.3720  120.9850 C.3   611  VAL611      0.0020
      8  N         95.8750   -2.2070  118.2500 N.am  612  HIS612     -0.1962
      9  CA        95.4650   -1.6710  116.9720 C.3   612  HIS612      0.1787
     10  C         96.2520   -0.3840  116.8680 C.2   612  HIS612      0.2621
     11  O         95.9950    0.5530  117.6110 O.2   612  HIS612     -0.2715
     12  CB        93.9880   -1.3480  116.9380 C.3   612  HIS612      0.0785
     13  CG        93.5470   -0.7790  115.6310 C.ar  612  HIS612      0.0821
     14  ND1       94.0660   -1.2110  114.4280 N.ar  612  HIS612     -0.2267
     15  CD2       92.6370    0.1770  115.3300 C.ar  612  HIS612      0.1154
     16  CE1       93.4940   -0.5440  113.4420 C.ar  612  HIS612      0.1986
     17  NE2       92.6220    0.3040  113.9610 N.ar  612  HIS612     -0.2212
     18  N         97.2160   -0.3340  115.9610 N.am  613  SER613     -0.1936
     19  CA        98.0380    0.8540  115.8350 C.3   613  SER613      0.2055
     20  C         98.1630    1.2800  114.3890 C.2   613  SER613      0.2643
     21  O         97.3940    0.8370  113.5390 O.2   613  SER613     -0.2714
     22  CB        99.4240    0.5630  116.3910 C.3   613  SER613      0.2130
     23  OG       100.0770   -0.3850  115.5700 O.3   613  SER613     -0.2179
     24  N         99.1360    2.1490  114.1190 N.am  614  LYS614     -0.1963
     25  CA        99.3750    2.6140  112.7670 C.3   614  LYS614      0.1728
     26  C        100.2520    1.5840  112.0930 C.2   614  LYS614      0.2617
     27  O        100.0540    1.2550  110.9200 O.2   614  LYS614     -0.2715
     28  CB       100.0730    3.9700  112.7640 C.3   614  LYS614      0.0311
     29  CG       100.4390    4.4760  111.3660 C.3   614  LYS614      0.0038
     30  CD        99.2510    4.5200  110.4010 C.3   614  LYS614      0.0206
     31  CE        99.6850    4.9920  109.0110 C.3   614  LYS614      0.1093
     32  NZ        98.6520    4.8230  107.9440 N.3   614  LYS614     -0.1314
     33  N        101.2150    1.0660  112.8440 N.am  615  GLY615     -0.1940
     34  CA       102.1140    0.0580  112.3120 C.3   615  GLY615      0.2014
     35  C        102.4790   -0.8690  113.4440 C.2   615  GLY615      0.2639
     36  O        102.2000   -0.5460  114.5950 O.2   615  GLY615     -0.2714
     37  N        103.0950   -2.0100  113.1580 N.am  616  LEU616     -0.1963
     38  CA       103.4410   -2.8990  114.2520 C.3   616  LEU616      0.1728
     39  C        104.4130   -4.0140  113.9250 C.2   616  LEU616      0.2616
     40  O        104.4440   -4.5360  112.8130 O.2   616  LEU616     -0.2715
     41  CB       102.1680   -3.4780  114.8600 C.3   616  LEU616      0.0311
     42  CG       102.3990   -4.2050  116.1780 C.3   616  LEU616      0.0022
     43  CD1      101.2220   -4.0140  117.1000 C.3   616  LEU616      0.0001
     44  CD2      102.6340   -5.6670  115.8980 C.3   616  LEU616      0.0001
     45  N        105.2170   -4.3680  114.9200 N.am  617  TYR617     -0.1974
     46  CA       106.2020   -5.4180  114.7620 C.3   617  TYR617      0.1639
     47  C        105.8760   -6.5370  115.7150 C.2   617  TYR617      0.2290
     48  O        105.6780   -6.3100  116.9090 O.2   617  TYR617     -0.2864
     49  CB       107.6130   -4.9000  115.0730 C.3   617  TYR617      0.0560
     50  CG       108.7120   -5.9480  114.9510 C.ar  617  TYR617     -0.0198
     51  CD1      109.1700   -6.3740  113.7050 C.ar  617  TYR617     -0.0009
     52  CD2      109.2740   -6.5300  116.0830 C.ar  617  TYR617     -0.0009
     53  CE1      110.1630   -7.3610  113.5910 C.ar  617  TYR617      0.0417
     54  CE2      110.2620   -7.5140  115.9780 C.ar  617  TYR617      0.0417
     55  CZ       110.7010   -7.9260  114.7320 C.ar  617  TYR617      0.1957
     56  OH       111.6640   -8.9070  114.6350 O.3   617  TYR617     -0.2866
     57  N         99.0900   -0.2870  108.9040 N.3   627  HIS627     -0.1241
     58  CA        97.7000    0.0630  108.7050 C.3   627  HIS627      0.1621
     59  C         97.7350    1.1340  107.6350 C.2   627  HIS627      0.2264
     60  O         98.7530    1.7970  107.4630 O.2   627  HIS627     -0.2867
     61  CB        97.0950    0.6120  110.0030 C.3   627  HIS627      0.0745
     62  CG        95.5990    0.5130  110.0630 C.ar  627  HIS627      0.0817
     63  ND1       94.7920    1.5830  110.3930 N.ar  627  HIS627     -0.2268
     64  CD2       94.7620   -0.5200  109.7960 C.ar  627  HIS627      0.1154
     65  CE1       93.5250    1.2140  110.3160 C.ar  627  HIS627      0.1986
     66  NE2       93.4800   -0.0560  109.9550 N.ar  627  HIS627     -0.2212
     67  N         94.9630    5.1150  108.6090 N.3   630  SER630     -0.1202
     68  CA        95.2610    5.6900  109.9080 C.3   630  SER630      0.2020
     69  C         96.0490    6.9950  109.7620 C.2   630  SER630      0.2619
     70  O         96.0050    7.6230  108.6990 O.2   630  SER630     -0.2717
     71  CB        96.0370    4.6750  110.7390 C.3   630  SER630      0.2103
     72  OG        96.2230    5.1650  112.0440 O.3   630  SER630     -0.2182
     73  N         96.7680    7.3990  110.8130 N.am  631  LYS631     -0.1965
     74  CA        97.5440    8.6470  110.7890 C.3   631  LYS631      0.1728
     75  C         98.4920    8.7660  111.9930 C.2   631  LYS631      0.2617
     76  O         98.3460    9.6310  112.8560 O.2   631  LYS631     -0.2715
     77  CB        96.5660    9.8380  110.7170 C.3   631  LYS631      0.0311
     78  CG        97.0940   11.2240  111.1000 C.3   631  LYS631      0.0038
     79  CD        98.2170   11.7230  110.2180 C.3   631  LYS631      0.0206
     80  CE        98.4910   13.1930  110.5120 C.3   631  LYS631      0.1093
     81  NZ        98.5430   13.4660  111.9830 N.3   631  LYS631     -0.1314
     82  N         99.4710    7.8740  112.0330 N.am  632  GLY632     -0.1940
     83  CA       100.4380    7.8700  113.1110 C.3   632  GLY632      0.2014
     84  C        100.6220    9.2340  113.7150 C.2   632  GLY632      0.2639
     85  O        100.9670   10.1800  113.0260 O.2   632  GLY632     -0.2714
     86  N        100.3620    9.3300  115.0090 N.am  633  VAL633     -0.1963
     87  CA       100.4980   10.5790  115.7300 C.3   633  VAL633      0.1727
     88  C        101.8450   11.2160  115.4240 C.2   633  VAL633      0.2616
     89  O        102.8830   10.5630  115.4770 O.2   633  VAL633     -0.2715
     90  CB       100.3590   10.3340  117.2420 C.3   633  VAL633      0.0290
     91  CG1      100.8910   11.5070  118.0230 C.3   633  VAL633      0.0023
     92  CG2       98.9150   10.1340  117.5830 C.3   633  VAL633      0.0023
     93  N        101.8230   12.4970  115.0910 N.am  634  GLU634     -0.1963
     94  CA       103.0530   13.2010  114.7820 C.3   634  GLU634      0.1733
     95  C        103.8060   12.5170  113.6470 C.2   634  GLU634      0.2616
     96  O        104.9840   12.1950  113.7650 O.2   634  GLU634     -0.2715
     97  CB       103.9390   13.2900  116.0310 C.3   634  GLU634      0.0429
     98  CG       103.2720   13.9960  117.2220 C.3   634  GLU634      0.1163
     99  CD       102.6910   15.3670  116.8650 C.2   634  GLU634      0.3649
    100  OE1      103.4760   16.2840  116.5370 O.co2 634  GLU634     -0.2457
    101  OE2      101.4480   15.5260  116.9050 O.co2 634  GLU634     -0.2457
    102  N        103.0990   12.2960  112.5460 N.am  635  LEU635     -0.1977
    103  CA       103.6540   11.6740  111.3470 C.3   635  LEU635      0.1596
    104  C        102.8600   12.1970  110.1600 C.2   635  LEU635      0.2287
    105  O        101.6950   12.5590  110.3030 O.2   635  LEU635     -0.2864
    106  CB       103.5140   10.1470  111.3890 C.3   635  LEU635      0.0297
    107  CG       104.4340    9.3020  112.2650 C.3   635  LEU635      0.0022
    108  CD1      104.2740    7.8450  111.8700 C.3   635  LEU635      0.0001
    109  CD2      105.8790    9.7340  112.0760 C.3   635  LEU635      0.0001
    110  N        106.1180    5.6510  109.2450 N.3   641  GLY641     -0.1225
    111  CA       105.6630    4.6080  110.1410 C.3   641  GLY641      0.1811
    112  C        106.4140    3.3130  109.8770 C.2   641  GLY641      0.2280
    113  O        107.0170    2.7440  110.7980 O.2   641  GLY641     -0.2866
    114  N        109.7800    3.2270  111.1780 N.3   644  HIS644     -0.1226
    115  CA       109.8290    3.0430  112.6340 C.3   644  HIS644      0.1752
    116  C        109.7750    1.5680  112.9920 C.2   644  HIS644      0.2595
    117  O        110.5640    1.0730  113.8100 O.2   644  HIS644     -0.2718
    118  CB       108.6520    3.7330  113.3210 C.3   644  HIS644      0.0759
    119  CG       108.5810    3.4720  114.7970 C.ar  644  HIS644      0.0818
    120  ND1      107.4410    3.6890  115.5420 N.ar  644  HIS644     -0.2268
    121  CD2      109.5180    3.0320  115.6700 C.ar  644  HIS644      0.1154
    122  CE1      107.6790    3.3950  116.8070 C.ar  644  HIS644      0.1986
    123  NE2      108.9310    2.9940  116.9130 N.ar  644  HIS644     -0.2212
    124  N        108.8130    0.8850  112.3790 N.am  645  GLU645     -0.1979
    125  CA       108.6010   -0.5330  112.6010 C.3   645  GLU645      0.1602
    126  C        109.8400   -1.3150  112.2010 C.2   645  GLU645      0.2287
    127  O        110.0840   -2.4160  112.6920 O.2   645  GLU645     -0.2864
    128  CB       107.3800   -0.9970  111.8060 C.3   645  GLU645      0.0415
    129  CG       106.1170   -0.2350  112.1630 C.3   645  GLU645      0.1163
    130  CD       105.7680   -0.3680  113.6270 C.2   645  GLU645      0.3649
    131  OE1      104.9330    0.4040  114.1250 O.co2 645  GLU645     -0.2457
    132  OE2      106.3300   -1.2540  114.2960 O.co2 645  GLU645     -0.2457
    133  N        112.4650   -1.8710  115.2910 N.3   648  HIS648     -0.1241
    134  CA       112.4100   -3.0400  116.1510 C.3   648  HIS648      0.1621
    135  C        113.0030   -4.2850  115.5010 C.2   648  HIS648      0.2264
    136  O        113.3620   -5.2350  116.1940 O.2   648  HIS648     -0.2867
    137  CB       110.9720   -3.3450  116.5660 C.3   648  HIS648      0.0745
    138  CG       110.3160   -2.2570  117.3570 C.ar  648  HIS648      0.0817
    139  ND1      109.4000   -2.5180  118.3550 N.ar  648  HIS648     -0.2268
    140  CD2      110.3940   -0.9110  117.2610 C.ar  648  HIS648      0.1154
    141  CE1      108.9430   -1.3790  118.8390 C.ar  648  HIS648      0.1986
    142  NE2      109.5290   -0.3880  118.1920 N.ar  648  HIS648     -0.2212
    143  N        110.9580   12.4520  120.4350 N.3   684  THR684     -0.1218
    144  CA       109.5070   12.5820  120.3250 C.3   684  THR684      0.1862
    145  C        108.8670   12.2760  121.6630 C.2   684  THR684      0.2287
    146  O        109.3190   11.3890  122.3940 O.2   684  THR684     -0.2866
    147  CB       108.8850   11.6200  119.2880 C.3   684  THR684      0.1770
    148  OG1      109.1680   10.2620  119.6540 O.3   684  THR684     -0.2211
    149  CG2      109.4210   11.9130  117.8950 C.3   684  THR684      0.0375
    150  N        106.6900   10.6030  122.3030 N.3   686  TYR686     -0.1241
    151  CA       106.2920    9.2050  122.3590 C.3   686  TYR686      0.1605
    152  C        107.4680    8.2790  122.5720 C.2   686  TYR686      0.2264
    153  O        107.3360    7.2130  123.1700 O.2   686  TYR686     -0.2867
    154  CB       105.5490    8.8100  121.0770 C.3   686  TYR686      0.0534
    155  CG       105.2980    7.3210  120.9300 C.ar  686  TYR686     -0.0201
    156  CD1      104.8660    6.5480  122.0070 C.ar  686  TYR686     -0.0009
    157  CD2      105.4750    6.6890  119.7080 C.ar  686  TYR686     -0.0009
    158  CE1      104.6210    5.1860  121.8590 C.ar  686  TYR686      0.0417
    159  CE2      105.2290    5.3320  119.5520 C.ar  686  TYR686      0.0417
    160  CZ       104.8060    4.5890  120.6250 C.ar  686  TYR686      0.1957
    161  OH       104.5600    3.2510  120.4540 O.3   686  TYR686     -0.2866
    162  N        111.1420    1.4950  122.0950 N.3   693  GLU693     -0.1245
    163  CA       110.4760    2.4660  121.2390 C.3   693  GLU693      0.1567
    164  C        111.4640    3.6040  120.9660 C.2   693  GLU693      0.2260
    165  O        111.8670    3.8240  119.8200 O.2   693  GLU693     -0.2867
    166  CB       109.2070    2.9960  121.9240 C.3   693  GLU693      0.0388
    167  CG       108.1330    1.9330  122.1750 C.3   693  GLU693      0.1160
    168  CD       107.5030    1.3890  120.8950 C.2   693  GLU693      0.3649
    169  OE1      108.2480    0.9870  119.9810 O.co2 693  GLU693     -0.2457
    170  OE2      106.2570    1.3520  120.8060 O.co2 693  GLU693     -0.2457
    171  N        112.3690    5.0210  117.7810 N.3   697  GLU697     -0.1245
    172  CA       112.0160    6.4010  117.5070 C.3   697  GLU697      0.1567
    173  C        113.2420    7.1240  117.0190 C.2   697  GLU697      0.2260
    174  O        113.1550    8.0250  116.2020 O.2   697  GLU697     -0.2867
    175  CB       111.5160    7.0860  118.7630 C.3   697  GLU697      0.0388
    176  CG       110.0700    6.8060  119.0920 C.3   697  GLU697      0.1160
    177  CD       109.1450    7.1640  117.9570 C.2   697  GLU697      0.3649
    178  OE1      109.0840    6.3700  116.9950 O.co2 697  GLU697     -0.2457
    179  OE2      108.4920    8.2340  118.0220 O.co2 697  GLU697     -0.2457
    180  N        114.0590    5.8920  113.4580 N.3   700  ARG700     -0.1245
    181  CA       113.1300    6.5010  112.5160 C.3   700  ARG700      0.1563
    182  C        113.6130    7.8780  112.1380 C.2   700  ARG700      0.2260
    183  O        113.9600    8.1220  110.9920 O.2   700  ARG700     -0.2867
    184  CB       111.7200    6.6040  113.1170 C.3   700  ARG700      0.0307
    185  CG       110.6470    7.0700  112.1210 C.3   700  ARG700      0.0489
    186  CD       110.2410    8.5320  112.2980 C.3   700  ARG700      0.2205
    187  NE       109.4770    8.7490  113.5260 N.pl3 700  ARG700     -0.0865
    188  CZ       109.0010    9.9290  113.9210 C.cat 700  ARG700      0.5346
    189  NH1      109.2000   11.0120  113.1870 N.pl3 700  ARG700      0.1354
    190  NH2      108.3350   10.0310  115.0630 N.pl3 700  ARG700      0.1354
@<TRIPOS>BOND
     1    60    59    2
     2    59    58    1
     3    32    31    1
     4    67    68    1
     5    70    69    2
     6    58    57    1
     7    58    61    1
     8    31    30    1
     9   110   111    1
    10    69    68    1
    11    69    73   am
    12    64    66   ar
    13    64    62   ar
    14   112   111    1
    15   112   113    2
    16    68    71    1
    17    66    65   ar
    18    61    62    1
    19    62    63   ar
    20   104   105    2
    21   104   103    1
    22    79    80    1
    23    79    78    1
    24    65    63   ar
    25    30    29    1
    26    80    81    1
    27    77    74    1
    28    77    78    1
    29    71    72    1
    30    74    73    1
    31    74    75    1
    32    27    26    2
    33   183   182    2
    34   114   115    1
    35   103   106    1
    36   103   102    1
    37    29    28    1
    38   106   107    1
    39   128   129    1
    40   128   125    1
    41   108   107    1
    42    75    82   am
    43    75    76    2
    44    82    83    1
    45   109   107    1
    46    26    25    1
    47    26    33   am
    48   185   186    1
    49   185   184    1
    50   182   181    1
    51   129   130    1
    52   126   125    1
    53   126   127    2
    54   186   187    1
    55    34    33    1
    56    34    35    1
    57   124   125    1
    58   124   116   am
    59   181   184    1
    60   181   180    1
    61   102    95   am
    62   115   116    1
    63   115   118    1
    64    28    25    1
    65    25    24    1
    66    40    39    2
    67   116   117    2
    68    85    84    2
    69    83    84    1
    70    37    35   am
    71    37    38    1
    72   189   188    1
    73   118   119    1
    74    16    17   ar
    75    16    14   ar
    76    35    36    2
    77   187   188    2
    78    21    20    2
    79    53    51   ar
    80    53    55   ar
    81   130   131   ar
    82   130   132   ar
    83    95    96    2
    84    95    94    1
    85    51    50   ar
    86    84    86   am
    87   188   190    1
    88    39    38    1
    89    39    45   am
    90    17    15   ar
    91    24    20   am
    92    38    41    1
    93    20    19    1
    94    14    13   ar
    95    56    55    1
    96    55    54   ar
    97    46    45    1
    98    46    49    1
    99    46    47    1
   100    94    93    1
   101    94    97    1
   102   119   120   ar
   103   119   121   ar
   104    41    42    1
   105    50    49    1
   106    50    52   ar
   107    86    87    1
   108    93    88   am
   109   133   134    1
   110    15    13   ar
   111    88    89    2
   112    88    87    1
   113   135   134    1
   114   135   136    2
   115   120   122   ar
   116    23    22    1
   117    13    12    1
   118   121   123   ar
   119    47    48    2
   120    87    90    1
   121    19    18    1
   122    19    22    1
   123    44    42    1
   124    18    10   am
   125    54    52   ar
   126    97    98    1
   127   134   137    1
   128    42    43    1
   129   174   173    2
   130   100    99   ar
   131   137   138    1
   132   122   123   ar
   133    99   101   ar
   134    99    98    1
   135    10     9    1
   136    10    11    2
   137    12     9    1
   138     9     8    1
   139   178   177   ar
   140   173   172    1
   141    90    92    1
   142    90    91    1
   143   140   138   ar
   144   140   142   ar
   145   138   139   ar
   146     4     3    2
   147   172   171    1
   148   172   175    1
   149   149   147    1
   150   177   179   ar
   151   177   176    1
   152   142   141   ar
   153     8     3   am
   154     3     2    1
   155   139   141   ar
   156   175   176    1
   157   147   148    1
   158   147   144    1
   159   159   157   ar
   160   159   160   ar
   161   157   155   ar
   162     2     5    1
   163     2     1    1
   164     5     6    1
   165     5     7    1
   166   165   164    2
   167   169   168   ar
   168   144   143    1
   169   144   145    1
   170   161   160    1
   171   160   158   ar
   172   170   168   ar
   173   168   167    1
   174   155   154    1
   175   155   156   ar
   176   164   163    1
   177   154   151    1
   178   163   166    1
   179   163   162    1
   180   145   146    2
   181   158   156   ar
   182   166   167    1
   183   150   151    1
   184   151   152    1
   185   152   153    2
