@<TRIPOS>MOLECULE
tmp/1pwuA00.pdb
 187 182 0 0 0
SMALL
GASTEIGER

@<TRIPOS>ATOM
      1  N         94.3210   33.2820  133.3070 N.3   299  ASP299     -0.1225
      2  CA        92.9030   33.0700  133.5720 C.3   299  ASP299      0.1805
      3  C         92.0420   34.1200  132.8740 C.2   299  ASP299      0.2597
      4  O         90.8610   34.2780  133.1890 O.2   299  ASP299     -0.2718
      5  CB        92.6560   33.1160  135.0840 C.3   299  ASP299      0.1424
      6  CG        93.1820   34.3940  135.7280 C.2   299  ASP299      0.3668
      7  OD1       94.3520   34.7570  135.4780 O.co2 299  ASP299     -0.2456
      8  OD2       92.4290   35.0310  136.4940 O.co2 299  ASP299     -0.2456
      9  N         92.6420   34.8310  131.9220 N.am  300  PHE300     -0.1976
     10  CA        91.9400   35.8710  131.1810 C.3   300  PHE300      0.1639
     11  C         92.0660   35.6820  129.6740 C.2   300  PHE300      0.2290
     12  O         91.6070   36.5160  128.8960 O.2   300  PHE300     -0.2864
     13  CB        92.4760   37.2440  131.5880 C.3   300  PHE300      0.0560
     14  CG        93.9710   37.3480  131.5380 C.ar  300  PHE300     -0.0200
     15  CD1       94.6340   37.5090  130.3270 C.ar  300  PHE300     -0.0042
     16  CD2       94.7220   37.2610  132.7050 C.ar  300  PHE300     -0.0042
     17  CE1       96.0240   37.5810  130.2770 C.ar  300  PHE300     -0.0003
     18  CE2       96.1110   37.3300  132.6680 C.ar  300  PHE300     -0.0003
     19  CZ        96.7650   37.4910  131.4510 C.ar  300  PHE300     -0.0000
     20  N         96.5190   40.3020  124.0510 N.3   351  LYS351     -0.1245
     21  CA        95.1940   39.7670  123.7860 C.3   351  LYS351      0.1561
     22  C         94.5360   40.6480  122.7270 C.2   351  LYS351      0.2260
     23  O         94.0310   40.1450  121.7230 O.2   351  LYS351     -0.2867
     24  CB        94.3470   39.7390  125.0610 C.3   351  LYS351      0.0271
     25  CG        93.0780   38.9110  124.9070 C.3   351  LYS351      0.0035
     26  CD        92.2170   38.9250  126.1520 C.3   351  LYS351      0.0206
     27  CE        90.9830   38.0600  125.9600 C.3   351  LYS351      0.1093
     28  NZ        90.1200   38.0420  127.1750 N.3   351  LYS351     -0.1314
     29  N         90.6150   46.3170  130.4210 N.3   623  GLN623     -0.1231
     30  CA        89.1990   45.9990  130.3110 C.3   623  GLN623      0.1698
     31  C         88.9440   44.5620  130.7300 C.2   623  GLN623      0.2592
     32  O         89.8510   43.7490  130.7670 O.2   623  GLN623     -0.2718
     33  CB        88.7350   46.1760  128.8640 C.3   623  GLN623      0.0381
     34  CG        89.4470   45.2480  127.8810 C.3   623  GLN623      0.0905
     35  CD        88.9360   45.3880  126.4560 C.2   623  GLN623      0.2608
     36  OE1       88.9620   46.4780  125.8760 O.2   623  GLN623     -0.2717
     37  NE2       88.4710   44.2780  125.8830 N.am  623  GLN623     -0.0878
     38  N         87.6950   44.2570  131.0360 N.am  624  VAL624     -0.1966
     39  CA        87.3010   42.9150  131.4250 C.3   624  VAL624      0.1727
     40  C         85.9540   42.5920  130.7810 C.2   624  VAL624      0.2616
     41  O         85.0600   43.4460  130.7120 O.2   624  VAL624     -0.2715
     42  CB        87.1370   42.7930  132.9720 C.3   624  VAL624      0.0290
     43  CG1       86.4750   41.4540  133.3380 C.3   624  VAL624      0.0023
     44  CG2       88.4910   42.9150  133.6460 C.3   624  VAL624      0.0023
     45  N         85.8120   41.3670  130.2910 N.am  625  HIS625     -0.1959
     46  CA        84.5430   40.9490  129.7190 C.3   625  HIS625      0.1787
     47  C         84.1620   39.6330  130.3600 C.2   625  HIS625      0.2621
     48  O         84.9840   38.7320  130.4530 O.2   625  HIS625     -0.2715
     49  CB        84.6150   40.7550  128.2070 C.3   625  HIS625      0.0785
     50  CG        83.4410   40.0030  127.6640 C.ar  625  HIS625      0.0821
     51  ND1       82.1390   40.4050  127.8820 N.ar  625  HIS625     -0.2267
     52  CD2       83.3660   38.8260  126.9980 C.ar  625  HIS625      0.1154
     53  CE1       81.3140   39.5060  127.3780 C.ar  625  HIS625      0.1986
     54  NE2       82.0320   38.5390  126.8370 N.ar  625  HIS625     -0.2212
     55  N         82.9150   39.5090  130.7880 N.am  626  SER626     -0.1936
     56  CA        82.4910   38.2850  131.4340 C.3   626  SER626      0.2055
     57  C         80.9950   38.2420  131.6660 C.2   626  SER626      0.2643
     58  O         80.2650   39.0850  131.1750 O.2   626  SER626     -0.2714
     59  CB        83.2300   38.1400  132.7580 C.3   626  SER626      0.2130
     60  OG        83.2280   39.3710  133.4590 O.3   626  SER626     -0.2179
     61  N         80.5440   37.2600  132.4320 N.am  627  LYS627     -0.1963
     62  CA        79.1230   37.0920  132.7010 C.3   627  LYS627      0.1728
     63  C         78.5520   38.2630  133.4800 C.2   627  LYS627      0.2617
     64  O         77.4880   38.7940  133.1580 O.2   627  LYS627     -0.2715
     65  CB        78.9040   35.8050  133.4900 C.3   627  LYS627      0.0311
     66  CG        77.5970   35.1120  133.1860 C.3   627  LYS627      0.0038
     67  CD        76.4040   36.0190  133.3970 C.3   627  LYS627      0.0206
     68  CE        75.1860   35.4010  132.7500 C.3   627  LYS627      0.1093
     69  NZ        75.5050   34.8930  131.3880 N.3   627  LYS627     -0.1314
     70  N         79.2670   38.6350  134.5310 N.am  628  GLY628     -0.1940
     71  CA        78.8620   39.7350  135.3790 C.3   628  GLY628      0.2014
     72  C         80.1130   40.4630  135.8360 C.2   628  GLY628      0.2639
     73  O         81.2150   39.9220  135.7890 O.2   628  GLY628     -0.2714
     74  N         79.9400   41.6990  136.2760 N.am  629  LEU629     -0.1963
     75  CA        81.0690   42.4770  136.6940 C.3   629  LEU629      0.1728
     76  C         80.6260   43.6370  137.5680 C.2   629  LEU629      0.2616
     77  O         79.6300   44.3030  137.2670 O.2   629  LEU629     -0.2715
     78  CB        81.8280   43.0070  135.4580 C.3   629  LEU629      0.0311
     79  CG        83.3380   43.2330  135.5660 C.3   629  LEU629      0.0022
     80  CD1       83.7350   44.5740  134.9910 C.3   629  LEU629      0.0001
     81  CD2       83.7810   43.1300  137.0180 C.3   629  LEU629      0.0001
     82  N         81.3650   43.8940  138.6490 N.am  630  TYR630     -0.1974
     83  CA        81.0950   45.0300  139.5230 C.3   630  TYR630      0.1639
     84  C         82.1860   46.0760  139.3270 C.2   630  TYR630      0.2290
     85  O         83.3850   45.7770  139.3300 O.2   630  TYR630     -0.2864
     86  CB        80.9710   44.6350  141.0040 C.3   630  TYR630      0.0560
     87  CG        80.6320   45.8200  141.8980 C.ar  630  TYR630     -0.0198
     88  CD1       79.3380   46.3230  141.9980 C.ar  630  TYR630     -0.0009
     89  CD2       81.6370   46.4420  142.6350 C.ar  630  TYR630     -0.0009
     90  CE1       79.0510   47.4130  142.8110 C.ar  630  TYR630      0.0417
     91  CE2       81.3600   47.5310  143.4530 C.ar  630  TYR630      0.0417
     92  CZ        80.0660   48.0130  143.5360 C.ar  630  TYR630      0.1957
     93  OH        79.7850   49.0910  144.3430 O.3   630  TYR630     -0.2866
     94  N         76.0810   35.2310  127.2970 N.3   643  SER643     -0.1202
     95  CA        77.1040   34.3400  127.8040 C.3   643  SER643      0.2020
     96  C         76.6550   33.2420  128.7730 C.2   643  SER643      0.2619
     97  O         75.5020   33.1840  129.2020 O.2   643  SER643     -0.2717
     98  CB        78.1770   35.1980  128.4640 C.3   643  SER643      0.2103
     99  OG        79.3530   34.4590  128.6620 O.3   643  SER643     -0.2182
    100  N         77.5920   32.3540  129.0820 N.am  644  LYS644     -0.1965
    101  CA        77.3820   31.2830  130.0470 C.3   644  LYS644      0.1728
    102  C         78.5660   31.3460  131.0110 C.2   644  LYS644      0.2617
    103  O         79.6880   30.9710  130.6580 O.2   644  LYS644     -0.2715
    104  CB        77.3500   29.9130  129.3750 C.3   644  LYS644      0.0311
    105  CG        77.3400   28.7530  130.3740 C.3   644  LYS644      0.0038
    106  CD        76.2170   28.9170  131.3980 C.3   644  LYS644      0.0206
    107  CE        76.1430   27.7490  132.3810 C.3   644  LYS644      0.1093
    108  NZ        77.2920   27.7140  133.3300 N.3   644  LYS644     -0.1314
    109  N         78.3200   31.8340  132.2210 N.am  645  GLY645     -0.1940
    110  CA        79.3940   31.9450  133.1890 C.3   645  GLY645      0.2014
    111  C         79.9020   30.6040  133.6800 C.2   645  GLY645      0.2638
    112  O         79.1560   29.6280  133.6880 O.2   645  GLY645     -0.2714
    113  N         81.1710   30.5540  134.0820 N.am  646  VAL646     -0.1977
    114  CA        81.7690   29.3260  134.5990 C.3   646  VAL646      0.1596
    115  C         80.8160   28.7100  135.6180 C.2   646  VAL646      0.2287
    116  O         80.6030   29.2490  136.7130 O.2   646  VAL646     -0.2864
    117  CB        83.1300   29.6010  135.2680 C.3   646  VAL646      0.0276
    118  CG1       84.1350   30.0580  134.2170 C.3   646  VAL646      0.0022
    119  CG2       82.9740   30.6570  136.3670 C.3   646  VAL646      0.0022
    120  N         77.6200   28.4130  136.7020 N.3   648  LEU648     -0.1245
    121  CA        76.7680   29.2160  137.5470 C.3   648  LEU648      0.1561
    122  C         75.4310   28.9030  136.9030 C.2   648  LEU648      0.2260
    123  O         75.1900   29.2740  135.7570 O.2   648  LEU648     -0.2867
    124  CB        77.0900   30.7040  137.4080 C.3   648  LEU648      0.0270
    125  CG        78.4150   31.2200  137.9690 C.3   648  LEU648      0.0019
    126  CD1       78.4370   32.7360  137.8690 C.3   648  LEU648      0.0001
    127  CD2       78.5710   30.7930  139.4190 C.3   648  LEU648      0.0001
    128  N         74.5230   34.7440  138.8690 N.3   654  GLY654     -0.1225
    129  CA        75.5100   35.7090  138.4280 C.3   654  GLY654      0.1811
    130  C         75.2930   37.1210  138.9250 C.2   654  GLY654      0.2280
    131  O         76.2340   37.7720  139.3690 O.2   654  GLY654     -0.2866
    132  N         76.0480   37.2760  142.6180 N.3   657  HIS657     -0.1226
    133  CA        77.4710   37.2110  142.8820 C.3   657  HIS657      0.1752
    134  C         78.0490   38.6230  142.8290 C.2   657  HIS657      0.2596
    135  O         78.8850   38.9900  143.6470 O.2   657  HIS657     -0.2718
    136  CB        78.1620   36.3320  141.8410 C.3   657  HIS657      0.0759
    137  CG        79.6560   36.3980  141.8970 C.ar  657  HIS657      0.0818
    138  ND1       80.4160   35.4900  142.6010 N.ar  657  HIS657     -0.2268
    139  CD2       80.5290   37.2760  141.3480 C.ar  657  HIS657      0.1154
    140  CE1       81.6950   35.8020  142.4800 C.ar  657  HIS657      0.1986
    141  NE2       81.7910   36.8820  141.7250 N.ar  657  HIS657     -0.2212
    142  N         77.5990   39.4130  141.8610 N.am  658  CYS658     -0.1970
    143  CA        78.0970   40.7750  141.7260 C.3   658  CYS658      0.1712
    144  C         77.6060   41.6660  142.8450 C.2   658  CYS658      0.2296
    145  O         78.3260   42.5530  143.3020 O.2   658  CYS658     -0.2864
    146  CB        77.6970   41.3620  140.3720 C.3   658  CYS658      0.0983
    147  SG        78.6720   40.6950  139.0170 S.3   658  CYS658     -0.0798
    148  N         79.9300   41.6110  145.5790 N.3   661  HIS661     -0.1241
    149  CA        81.0290   42.5550  145.4290 C.3   661  HIS661      0.1621
    150  C         80.6130   43.9440  145.8800 C.2   661  HIS661      0.2264
    151  O         81.4340   44.7030  146.3900 O.2   661  HIS661     -0.2867
    152  CB        81.4670   42.6190  143.9760 C.3   661  HIS661      0.0745
    153  CG        82.4550   41.5660  143.5970 C.ar  661  HIS661      0.0817
    154  ND1       83.8120   41.7220  143.7780 N.ar  661  HIS661     -0.2268
    155  CD2       82.2860   40.3350  143.0620 C.ar  661  HIS661      0.1154
    156  CE1       84.4370   40.6320  143.3700 C.ar  661  HIS661      0.1986
    157  NE2       83.5330   39.7760  142.9330 N.ar  661  HIS661     -0.2212
    158  N         86.3780   28.7570  141.7200 N.3   699  TYR699     -0.1241
    159  CA        86.5370   30.1630  141.4020 C.3   699  TYR699      0.1605
    160  C         86.7950   31.0170  142.6350 C.2   699  TYR699      0.2264
    161  O         87.6690   31.8850  142.6200 O.2   699  TYR699     -0.2867
    162  CB        85.3050   30.6880  140.6700 C.3   699  TYR699      0.0534
    163  CG        85.4770   32.1170  140.2300 C.ar  699  TYR699     -0.0201
    164  CD1       86.6840   32.5450  139.6850 C.ar  699  TYR699     -0.0009
    165  CD2       84.4430   33.0420  140.3530 C.ar  699  TYR699     -0.0009
    166  CE1       86.8630   33.8550  139.2720 C.ar  699  TYR699      0.0417
    167  CE2       84.6120   34.3630  139.9400 C.ar  699  TYR699      0.0417
    168  CZ        85.8280   34.7590  139.3990 C.ar  699  TYR699      0.1957
    169  OH        86.0230   36.0510  138.9750 O.3   699  TYR699     -0.2866
    170  N         86.8180   37.8240  145.4920 N.3   706  GLU706     -0.1245
    171  CA        86.2110   36.7120  144.7790 C.3   706  GLU706      0.1567
    172  C         85.6570   35.6970  145.7620 C.2   706  GLU706      0.2260
    173  O         84.5350   35.2110  145.6120 O.2   706  GLU706     -0.2867
    174  CB        87.2400   36.0460  143.8680 C.3   706  GLU706      0.0388
    175  CG        87.7970   36.9670  142.8010 C.3   706  GLU706      0.1160
    176  CD        86.7030   37.6360  141.9910 C.2   706  GLU706      0.3649
    177  OE1       85.8010   36.9160  141.5190 O.co2 706  GLU706     -0.2457
    178  OE2       86.7430   38.8730  141.8220 O.co2 706  GLU706     -0.2457
    179  N         81.6230   34.7570  146.1590 N.3   710  GLU710     -0.1245
    180  CA        81.1120   33.4050  145.9380 C.3   710  GLU710      0.1567
    181  C         80.4480   32.8300  147.1810 C.2   710  GLU710      0.2260
    182  O         79.4270   32.1350  147.0990 O.2   710  GLU710     -0.2867
    183  CB        82.2370   32.4860  145.4730 C.3   710  GLU710      0.0388
    184  CG        82.5000   32.5890  143.9850 C.3   710  GLU710      0.1160
    185  CD        81.2590   32.2790  143.1690 C.2   710  GLU710      0.3649
    186  OE1       80.3030   33.0880  143.1760 O.co2 710  GLU710     -0.2457
    187  OE2       81.2360   31.2110  142.5280 O.co2 710  GLU710     -0.2457
@<TRIPOS>BOND
     1    23    22    2
     2    22    21    1
     3    21    20    1
     4    21    24    1
     5    25    24    1
     6    25    26    1
     7    36    35    2
     8    37    35   am
     9    27    26    1
    10    27    28    1
    11    35    34    1
    12    54    52   ar
    13    54    53   ar
    14    52    50   ar
    15    94    95    1
    16    53    51   ar
    17    50    51   ar
    18    50    49    1
    19    95    98    1
    20    95    96    1
    21    34    33    1
    22    49    46    1
    23    98    99    1
    24    96   100   am
    25    96    97    2
    26    33    30    1
    27    12    11    2
    28   100   101    1
    29   104   101    1
    30   104   105    1
    31    11    10    1
    32    46    45    1
    33    46    47    1
    34   101   102    1
    35    17    15   ar
    36    17    19   ar
    37    45    40   am
    38    30    29    1
    39    30    31    1
    40    15    14   ar
    41    47    48    2
    42    47    55   am
    43   105   106    1
    44   103   102    2
    45    41    40    2
    46    31    32    2
    47    31    38   am
    48    40    39    1
    49    55    56    1
    50   102   109   am
    51    38    39    1
    52    58    57    2
    53    10    13    1
    54    10     9    1
    55    69    68    1
    56   106   107    1
    57    39    42    1
    58    56    57    1
    59    56    59    1
    60    19    18   ar
    61    14    13    1
    62    14    16   ar
    63    57    61   am
    64     9     3   am
    65   109   110    1
    66   107   108    1
    67    61    62    1
    68    18    16   ar
    69    62    63    1
    70    62    65    1
    71    68    67    1
    72    59    60    1
    73     3     4    2
    74     3     2    1
    75    42    43    1
    76    42    44    1
    77    64    63    2
    78    66    67    1
    79    66    65    1
    80   110   111    1
    81     1     2    1
    82    63    70   am
    83     2     5    1
    84   111   112    2
    85   111   113   am
    86   113   114    1
    87   118   117    1
    88    70    71    1
    89   114   117    1
    90   114   115    1
    91    80    79    1
    92     5     6    1
    93   117   119    1
    94    71    72    1
    95    78    79    1
    96    78    75    1
    97     7     6   ar
    98    79    81    1
    99   115   116    2
   100     6     8   ar
   101   123   122    2
   102    73    72    2
   103    72    74   am
   104    74    75    1
   105    75    76    1
   106   120   121    1
   107   122   121    1
   108    77    76    2
   109   124   121    1
   110   124   125    1
   111    76    82   am
   112   126   125    1
   113   125   127    1
   114   129   128    1
   115   129   130    1
   116    82    83    1
   117   130   131    2
   118   169   168    1
   119   147   146    1
   120   166   168   ar
   121   166   164   ar
   122    84    85    2
   123    84    83    1
   124   168   167   ar
   125    83    86    1
   126   164   163   ar
   127   167   165   ar
   128   163   165   ar
   129   163   162    1
   130   146   143    1
   131   162   159    1
   132    86    87    1
   133   139   141   ar
   134   139   137   ar
   135   159   158    1
   136   159   160    1
   137   177   176   ar
   138   141   140   ar
   139   143   142    1
   140   143   144    1
   141   178   176   ar
   142   136   137    1
   143   136   133    1
   144   142   134   am
   145   137   138   ar
   146    87    88   ar
   147    87    89   ar
   148   176   175    1
   149    88    90   ar
   150   140   138   ar
   151   187   185   ar
   152   132   133    1
   153   161   160    2
   154    89    91   ar
   155   175   174    1
   156    90    92   ar
   157   134   133    1
   158   134   135    2
   159   144   145    2
   160   157   155   ar
   161   157   156   ar
   162   155   153   ar
   163   185   186   ar
   164   185   184    1
   165   156   154   ar
   166    91    92   ar
   167    92    93    1
   168   153   154   ar
   169   153   152    1
   170   174   171    1
   171   152   149    1
   172   184   183    1
   173   171   170    1
   174   171   172    1
   175   149   148    1
   176   149   150    1
   177   183   180    1
   178   173   172    2
   179   150   151    2
   180   180   179    1
   181   180   181    1
   182   182   181    2
