@<TRIPOS>MOLECULE
tmp/1pwyA00.pdb
 115 108 0 0 0
SMALL
GASTEIGER

@<TRIPOS>ATOM
      1  N        -23.5210   83.4870    5.6010 N.3    32  SER32      -0.1217
      2  CA       -23.9860   84.8080    5.9740 C.3    32  SER32       0.1889
      3  C        -25.1930   85.1970    5.1710 C.2    32  SER32       0.2288
      4  O        -25.1080   85.3300    3.9560 O.2    32  SER32      -0.2866
      5  CB       -22.8710   85.8250    5.7500 C.3    32  SER32       0.2089
      6  OG       -23.3740   87.1510    5.7180 O.3    32  SER32      -0.2183
      7  N        -10.9040   84.2880   10.9680 N.3    87  TYR87      -0.1241
      8  CA       -10.6550   85.7180   11.2040 C.3    87  TYR87       0.1605
      9  C        -11.2950   86.3020   12.4670 C.2    87  TYR87       0.2264
     10  O        -11.1730   87.4890   12.7150 O.2    87  TYR87      -0.2867
     11  CB       -11.0730   86.5590   10.0150 C.3    87  TYR87       0.0534
     12  CG       -12.5610   86.5560    9.7710 C.ar   87  TYR87      -0.0201
     13  CD1      -13.1090   85.8500    8.7040 C.ar   87  TYR87      -0.0009
     14  CD2      -13.4270   87.2400   10.6080 C.ar   87  TYR87      -0.0009
     15  CE1      -14.4580   85.8260    8.4910 C.ar   87  TYR87       0.0417
     16  CE2      -14.7830   87.2080   10.3960 C.ar   87  TYR87       0.0417
     17  CZ       -15.2760   86.4990    9.3450 C.ar   87  TYR87       0.1957
     18  OH       -16.6110   86.4050    9.1830 O.3    87  TYR87      -0.2866
     19  N        -21.4420   82.6750    1.8570 N.3   115  ALA115     -0.1231
     20  CA       -21.5220   83.7630    0.8770 C.3   115  ALA115      0.1694
     21  C        -20.0720   83.9060    0.4290 C.2   115  ALA115      0.2592
     22  O        -19.1710   83.7040    1.2490 O.2   115  ALA115     -0.2718
     23  CB       -22.0090   85.0380    1.5270 C.3   115  ALA115      0.0304
     24  N        -19.8310   84.2310   -0.8400 N.am  116  ALA116     -0.1966
     25  CA       -18.4650   84.3470   -1.3400 C.3   116  ALA116      0.1728
     26  C        -18.3230   85.3370   -2.4790 C.2   116  ALA116      0.2616
     27  O        -19.3050   85.7740   -3.0740 O.2   116  ALA116     -0.2715
     28  CB       -18.0030   83.0180   -1.8000 C.3   116  ALA116      0.0334
     29  N        -17.0850   85.6710   -2.8000 N.am  117  GLY117     -0.1955
     30  CA       -16.8210   86.6040   -3.8760 C.3   117  GLY117      0.1869
     31  C        -16.7670   85.8440   -5.1750 C.2   117  GLY117      0.2309
     32  O        -16.6330   84.6260   -5.1760 O.2   117  GLY117     -0.2863
     33  N        -10.6220   92.1400    2.4560 N.3   199  PHE199     -0.1227
     34  CA       -11.0800   91.5950    1.1910 C.3   199  PHE199      0.1736
     35  C         -9.9040   91.6750    0.2260 C.2   199  PHE199      0.2595
     36  O         -9.0960   92.5920    0.2830 O.2   199  PHE199     -0.2718
     37  CB       -12.3350   92.3150    0.6860 C.3   199  PHE199      0.0547
     38  CG       -13.6180   91.7770    1.2950 C.ar  199  PHE199     -0.0202
     39  CD1      -13.6770   91.4310    2.6410 C.ar  199  PHE199     -0.0042
     40  CD2      -14.7420   91.5650    0.5160 C.ar  199  PHE199     -0.0042
     41  CE1      -14.8200   90.8850    3.1850 C.ar  199  PHE199     -0.0003
     42  CE2      -15.8930   91.0180    1.0640 C.ar  199  PHE199     -0.0003
     43  CZ       -15.9290   90.6790    2.3980 C.ar  199  PHE199     -0.0000
     44  N         -9.7830   90.6800   -0.6330 N.am  200  GLU200     -0.1979
     45  CA        -8.6640   90.6050   -1.5650 C.3   200  GLU200      0.1602
     46  C         -8.3970   91.9000   -2.2930 C.2   200  GLU200      0.2287
     47  O         -9.2530   92.7720   -2.3700 O.2   200  GLU200     -0.2864
     48  CB        -8.8860   89.5070   -2.6100 C.3   200  GLU200      0.0415
     49  CG        -9.2240   88.1550   -2.0620 C.3   200  GLU200      0.1163
     50  CD       -10.5390   88.1570   -1.3280 C.2   200  GLU200      0.3649
     51  OE1      -10.6050   87.5510   -0.2350 O.co2 200  GLU200     -0.2457
     52  OE2      -11.4930   88.8030   -1.8190 O.co2 200  GLU200     -0.2457
     53  N        -14.2270   82.9560   -3.8480 N.3   216  VAL216     -0.1231
     54  CA       -13.3790   83.1200   -2.6520 C.3   216  VAL216      0.1692
     55  C        -14.1820   83.3810   -1.3840 C.2   216  VAL216      0.2593
     56  O        -15.1550   84.1400   -1.4010 O.2   216  VAL216     -0.2718
     57  CB       -12.3530   84.2680   -2.8010 C.3   216  VAL216      0.0266
     58  CG1      -13.0400   85.5670   -3.2300 C.3   216  VAL216      0.0020
     59  CG2      -11.5870   84.4680   -1.4790 C.3   216  VAL216      0.0020
     60  N        -13.7390   82.7930   -0.2770 N.am  217  GLY217     -0.1942
     61  CA       -14.4430   82.9490    0.9750 C.3   217  GLY217      0.2014
     62  C        -13.5400   82.7340    2.1680 C.2   217  GLY217      0.2638
     63  O        -12.3880   82.3370    2.0300 O.2   217  GLY217     -0.2714
     64  N        -14.0910   82.9520    3.3520 N.am  218  MET218     -0.1976
     65  CA       -13.3440   82.8210    4.5790 C.3   218  MET218      0.1605
     66  C        -13.9390   81.7970    5.5380 C.2   218  MET218      0.2287
     67  O        -14.0480   82.0670    6.7420 O.2   218  MET218     -0.2864
     68  CB       -13.2710   84.1860    5.2380 C.3   218  MET218      0.0413
     69  CG       -12.6030   85.2120    4.3460 C.3   218  MET218      0.0598
     70  SD       -12.8300   86.8980    4.8660 S.3   218  MET218     -0.1393
     71  CE       -12.4180   87.7580    3.3240 C.3   218  MET218      0.0692
     72  N        -22.0170   86.6170   -3.5760 N.3   241  THR241     -0.1203
     73  CA       -22.6160   87.8570   -3.1190 C.3   241  THR241      0.1994
     74  C        -22.0830   89.1100   -3.7690 C.2   241  THR241      0.2617
     75  O        -22.6920   90.1780   -3.6650 O.2   241  THR241     -0.2717
     76  CB       -22.5160   87.9890   -1.6170 C.3   241  THR241      0.1784
     77  OG1      -21.1460   87.8380   -1.2220 O.3   241  THR241     -0.2211
     78  CG2      -23.3940   86.9310   -0.9290 C.3   241  THR241      0.0376
     79  N        -20.9210   88.9950   -4.3970 N.am  242  ASN242     -0.1974
     80  CA       -20.3220   90.1180   -5.1010 C.3   242  ASN242      0.1688
     81  C        -19.1730   89.6290   -5.9310 C.2   242  ASN242      0.2292
     82  O        -18.5170   88.6600   -5.5650 O.2   242  ASN242     -0.2864
     83  CB       -19.8720   91.2400   -4.1610 C.3   242  ASN242      0.1181
     84  CG       -19.1300   90.7430   -2.9610 C.2   242  ASN242      0.2629
     85  OD1      -19.6000   90.8770   -1.8400 O.2   242  ASN242     -0.2716
     86  ND2      -17.9460   90.2100   -3.1740 N.am  242  ASN242     -0.0877
     87  N        -15.5340   89.8540   -7.4430 N.3   244  VAL244     -0.1245
     88  CA       -14.2770   90.4310   -7.0120 C.3   244  VAL244      0.1561
     89  C        -13.6900   91.1720   -8.1910 C.2   244  VAL244      0.2260
     90  O        -13.7680   90.6940   -9.3250 O.2   244  VAL244     -0.2867
     91  CB       -13.2880   89.3450   -6.5170 C.3   244  VAL244      0.0252
     92  CG1      -13.8940   88.5520   -5.3610 C.3   244  VAL244      0.0019
     93  CG2      -12.9090   88.4300   -7.6460 C.3   244  VAL244      0.0019
     94  N        -17.7030   95.2130   -4.1070 N.3   254  ALA254     -0.1245
     95  CA       -17.9490   93.8480   -3.6350 C.3   254  ALA254      0.1562
     96  C        -18.0130   93.8920   -2.0900 C.2   254  ALA254      0.2260
     97  O        -17.4150   93.0660   -1.3880 O.2   254  ALA254     -0.2867
     98  CB       -16.8130   92.9050   -4.1220 C.3   254  ALA254      0.0290
     99  N        -19.2810   93.5920    1.7580 N.3   256  HIS256     -0.1241
    100  CA       -20.0400   92.5720    2.5050 C.3   256  HIS256      0.1621
    101  C        -21.2350   93.3340    3.0720 C.2   256  HIS256      0.2264
    102  O        -22.2530   92.7320    3.4290 O.2   256  HIS256     -0.2867
    103  CB       -19.2630   91.9710    3.6900 C.3   256  HIS256      0.0745
    104  CG       -20.1040   91.8380    4.9190 C.ar  256  HIS256      0.0817
    105  ND1      -21.1030   90.8930    5.0250 N.ar  256  HIS256     -0.2268
    106  CD2      -20.2450   92.6550    5.9930 C.ar  256  HIS256      0.1154
    107  CE1      -21.8310   91.1400    6.1010 C.ar  256  HIS256      0.1986
    108  NE2      -21.3330   92.2050    6.7050 N.ar  256  HIS256     -0.2212
    109  N        -23.9450   92.8900    1.1680 N.3   259  VAL259     -0.1245
    110  CA       -24.2390   91.4770    1.2840 C.3   259  VAL259      0.1561
    111  C        -25.6750   91.3150    0.7700 C.2   259  VAL259      0.2260
    112  O        -26.1910   90.1990    0.7340 O.2   259  VAL259     -0.2867
    113  CB       -24.2250   91.0750    2.7650 C.3   259  VAL259      0.0252
    114  CG1      -25.2660   91.8940    3.5320 C.3   259  VAL259      0.0019
    115  CG2      -24.4300   89.5770    2.9400 C.3   259  VAL259      0.0019
@<TRIPOS>BOND
     1    90    89    2
     2    89    88    1
     3    93    91    1
     4    87    88    1
     5    88    91    1
     6    91    92    1
     7    81    82    2
     8    81    80    1
     9    32    31    2
    10    31    30    1
    11    80    79    1
    12    80    83    1
    13    79    74   am
    14    83    84    1
    15    98    95    1
    16    94    95    1
    17    30    29    1
    18    53    54    1
    19    74    75    2
    20    74    73    1
    21    95    96    1
    22    72    73    1
    23    58    57    1
    24    86    84   am
    25    73    76    1
    26    27    26    2
    27    84    85    2
    28    57    54    1
    29    57    59    1
    30    29    26   am
    31    54    55    1
    32    48    49    1
    33    48    45    1
    34    26    25    1
    35    47    46    2
    36    46    45    1
    37    96    97    2
    38    49    50    1
    39    52    50   ar
    40    28    25    1
    41    76    77    1
    42    76    78    1
    43    45    44    1
    44    56    55    2
    45    55    60   am
    46    25    24    1
    47    50    51   ar
    48    24    21   am
    49    44    35   am
    50    60    61    1
    51    35    36    2
    52    35    34    1
    53    21    20    1
    54    21    22    2
    55    40    42   ar
    56    40    38   ar
    57    37    34    1
    58    37    38    1
    59   112   111    2
    60   111   110    1
    61    20    23    1
    62    20    19    1
    63    61    62    1
    64    42    43   ar
    65   109   110    1
    66    34    33    1
    67   110   113    1
    68    38    39   ar
    69    99   100    1
    70    63    62    2
    71    62    64   am
    72    43    41   ar
    73   100   101    1
    74   100   103    1
    75    39    41   ar
    76   113   115    1
    77   113   114    1
    78   101   102    2
    79    71    70    1
    80    64    65    1
    81   103   104    1
    82     4     3    2
    83    69    70    1
    84    69    68    1
    85    65    68    1
    86    65    66    1
    87   104   105   ar
    88   104   106   ar
    89   105   107   ar
    90     3     2    1
    91    66    67    2
    92     1     2    1
    93     6     5    1
    94     5     2    1
    95   106   108   ar
    96   107   108   ar
    97    15    13   ar
    98    15    17   ar
    99    13    12   ar
   100    18    17    1
   101    17    16   ar
   102    12    11    1
   103    12    14   ar
   104    11     8    1
   105    16    14   ar
   106     7     8    1
   107     8     9    1
   108     9    10    2
