@<TRIPOS>MOLECULE
tmp/1pwzB00.pdb
 114 113 0 0 0
SMALL
GASTEIGER

@<TRIPOS>ATOM
      1  N         71.7570   -1.3610   26.9700 N.3    11  PHE11      -0.1241
      2  CA        72.1850   -0.1040   27.5700 C.3    11  PHE11       0.1605
      3  C         71.5540    0.0890   28.9520 C.2    11  PHE11       0.2264
      4  O         71.8080   -0.7040   29.8590 O.2    11  PHE11      -0.2867
      5  CB        71.8070    1.0350   26.6040 C.3    11  PHE11       0.0534
      6  CG        72.5660    2.3170   26.8140 C.ar   11  PHE11      -0.0203
      7  CD1       73.7490    2.3490   27.5490 C.ar   11  PHE11      -0.0042
      8  CD2       72.0930    3.5020   26.2530 C.ar   11  PHE11      -0.0042
      9  CE1       74.4490    3.5460   27.7250 C.ar   11  PHE11      -0.0003
     10  CE2       72.7810    4.6980   26.4200 C.ar   11  PHE11      -0.0003
     11  CZ        73.9620    4.7240   27.1590 C.ar   11  PHE11      -0.0000
     12  N         78.1280    1.7500   16.6850 N.3    83  PRO83      -0.2116
     13  CA        79.0470    2.5390   15.8720 C.3    83  PRO83       0.1372
     14  C         80.3710    1.8590   15.5710 C.2    83  PRO83       0.2244
     15  O         80.7940    0.9440   16.2710 O.2    83  PRO83      -0.2868
     16  CB        79.2690    3.7530   16.7400 C.3    83  PRO83       0.0268
     17  CG        79.4830    3.0730   18.0810 C.3    83  PRO83       0.0207
     18  CD        78.3550    2.0300   18.1170 C.3    83  PRO83       0.0892
     19  N         84.4580    2.6440   15.0060 N.3    85  PHE85      -0.1241
     20  CA        85.4820    3.6360   15.2760 C.3    85  PHE85       0.1605
     21  C         86.1700    3.7970   13.9250 C.2    85  PHE85       0.2264
     22  O         86.5670    2.8080   13.3190 O.2    85  PHE85      -0.2867
     23  CB        86.4880    3.1000   16.2920 C.3    85  PHE85       0.0534
     24  CG        86.1250    3.3800   17.7240 C.ar   85  PHE85      -0.0203
     25  CD1       86.7150    4.4470   18.4110 C.ar   85  PHE85      -0.0042
     26  CD2       85.2240    2.5660   18.4030 C.ar   85  PHE85      -0.0042
     27  CE1       86.4210    4.6950   19.7450 C.ar   85  PHE85      -0.0003
     28  CE2       84.9240    2.8100   19.7420 C.ar   85  PHE85      -0.0003
     29  CZ        85.5260    3.8770   20.4130 C.ar   85  PHE85      -0.0000
     30  N         74.7980    9.7990   26.3880 N.3   131  SER131     -0.1217
     31  CA        76.1650    9.3250   26.5310 C.3   131  SER131      0.1889
     32  C         77.0810   10.4090   27.0780 C.2   131  SER131      0.2288
     33  O         76.8910   11.5940   26.8100 O.2   131  SER131     -0.2866
     34  CB        76.6860    8.8550   25.1710 C.3   131  SER131      0.2089
     35  OG        78.0910    8.7100   25.1920 O.3   131  SER131     -0.2183
     36  N         80.2440   10.5650   26.3180 N.3   133  THR133     -0.1218
     37  CA        81.3690   10.7520   25.4030 C.3   133  THR133      0.1862
     38  C         81.5250   12.2010   24.9080 C.2   133  THR133      0.2287
     39  O         82.6340   12.6220   24.5690 O.2   133  THR133     -0.2866
     40  CB        81.3040    9.7970   24.1570 C.3   133  THR133      0.1770
     41  OG1       80.1040   10.0350   23.4160 O.3   133  THR133     -0.2211
     42  CG2       81.3640    8.3410   24.5880 C.3   133  THR133      0.0375
     43  N         86.8470   10.5490   22.4770 N.3   138  TRP138     -0.1241
     44  CA        87.9430    9.6590   22.1270 C.3   138  TRP138      0.1605
     45  C         88.1360   10.0000   20.6570 C.2   138  TRP138      0.2264
     46  O         87.2090   10.5020   20.0170 O.2   138  TRP138     -0.2867
     47  CB        87.5190    8.2020   22.2150 C.3   138  TRP138      0.0550
     48  CG        87.3680    7.6580   23.5750 C.ar  138  TRP138      0.0003
     49  CD1       88.2500    7.7630   24.6050 C.ar  138  TRP138      0.0946
     50  CD2       86.3060    6.8120   24.0360 C.ar  138  TRP138      0.0152
     51  NE1       87.8080    7.0260   25.6850 N.ar  138  TRP138     -0.2442
     52  CE2       86.6180    6.4330   25.3620 C.ar  138  TRP138      0.0810
     53  CE3       85.1270    6.3310   23.4520 C.ar  138  TRP138      0.0012
     54  CZ2       85.7860    5.5930   26.1190 C.ar  138  TRP138      0.0191
     55  CZ3       84.3110    5.5000   24.2000 C.ar  138  TRP138      0.0001
     56  CH2       84.6430    5.1360   25.5220 C.ar  138  TRP138      0.0015
     57  N         85.5640    8.6850   16.6800 N.3   141  LEU141     -0.1245
     58  CA        84.2080    8.2590   17.0100 C.3   141  LEU141      0.1561
     59  C         83.2830    9.4440   16.8060 C.2   141  LEU141      0.2260
     60  O         82.2620    9.5740   17.4720 O.2   141  LEU141     -0.2867
     61  CB        84.1220    7.7620   18.4610 C.3   141  LEU141      0.0270
     62  CG        82.8710    6.9410   18.8060 C.3   141  LEU141      0.0019
     63  CD1       82.7520    5.7670   17.8370 C.3   141  LEU141      0.0001
     64  CD2       82.9540    6.4260   20.2250 C.3   141  LEU141      0.0001
     65  N         78.9820    8.7750   16.3460 N.3   144  TYR144     -0.1241
     66  CA        78.2870    8.4530   17.5820 C.3   144  TYR144      0.1605
     67  C         78.3480    9.6110   18.5750 C.2   144  TYR144      0.2264
     68  O         77.3190   10.0700   19.0830 O.2   144  TYR144     -0.2867
     69  CB        78.9140    7.1930   18.1940 C.3   144  TYR144      0.0534
     70  CG        78.3370    6.7820   19.5230 C.ar  144  TYR144     -0.0201
     71  CD1       78.7630    7.3810   20.7110 C.ar  144  TYR144     -0.0009
     72  CD2       77.3320    5.8180   19.5930 C.ar  144  TYR144     -0.0009
     73  CE1       78.1960    7.0310   21.9390 C.ar  144  TYR144      0.0417
     74  CE2       76.7570    5.4600   20.8060 C.ar  144  TYR144      0.0417
     75  CZ        77.1900    6.0670   21.9760 C.ar  144  TYR144      0.1957
     76  OH        76.6320    5.6940   23.1830 O.3   144  TYR144     -0.2866
     77  N         75.6030    8.2200   30.3620 N.3   174  PRO174     -0.2102
     78  CA        76.5340    7.2990   31.0150 C.3   174  PRO174      0.1504
     79  C         77.7940    7.0070   30.2030 C.2   174  PRO174      0.2575
     80  O         77.9680    7.4540   29.0580 O.2   174  PRO174     -0.2718
     81  CB        75.7070    6.0150   31.1900 C.3   174  PRO174      0.0282
     82  CG        74.2800    6.3840   30.7550 C.3   174  PRO174      0.0208
     83  CD        74.4750    7.4870   29.7660 C.3   174  PRO174      0.0893
     84  N         78.6740    6.2540   30.8390 N.am  175  ASN175     -0.1975
     85  CA        79.8860    5.7610   30.2230 C.3   175  ASN175      0.1688
     86  C         80.4180    4.7560   31.2230 C.2   175  ASN175      0.2292
     87  O         80.3980    4.9920   32.4300 O.2   175  ASN175     -0.2864
     88  CB        80.9110    6.8530   29.9100 C.3   175  ASN175      0.1181
     89  CG        81.9980    6.3480   28.9440 C.2   175  ASN175      0.2629
     90  OD1       81.7480    5.4460   28.1410 O.2   175  ASN175     -0.2716
     91  ND2       83.1900    6.9230   29.0160 N.am  175  ASN175     -0.0877
     92  N         76.8470   -1.1110   26.2870 N.3   185  PHE185     -0.1227
     93  CA        78.0540   -1.0790   25.4690 C.3   185  PHE185      0.1736
     94  C         79.2030   -1.6120   26.3130 C.2   185  PHE185      0.2595
     95  O         80.3700   -1.5260   25.9270 O.2   185  PHE185     -0.2718
     96  CB        78.3800    0.3580   25.0180 C.3   185  PHE185      0.0547
     97  CG        77.2580    1.0410   24.2800 C.ar  185  PHE185     -0.0202
     98  CD1       76.2280    1.6680   24.9760 C.ar  185  PHE185     -0.0042
     99  CD2       77.2160    1.0280   22.8870 C.ar  185  PHE185     -0.0042
    100  CE1       75.1650    2.2720   24.2960 C.ar  185  PHE185     -0.0003
    101  CE2       76.1660    1.6270   22.1950 C.ar  185  PHE185     -0.0003
    102  CZ        75.1330    2.2520   22.9050 C.ar  185  PHE185     -0.0000
    103  N         78.8700   -2.1520   27.4780 N.am  186  TYR186     -0.1976
    104  CA        79.8790   -2.7010   28.3740 C.3   186  TYR186      0.1639
    105  C         79.4510   -4.0350   29.0050 C.2   186  TYR186      0.2290
    106  O         79.1820   -4.1160   30.2060 O.2   186  TYR186     -0.2864
    107  CB        80.2230   -1.6780   29.4580 C.3   186  TYR186      0.0560
    108  CG        80.9510   -0.4610   28.9210 C.ar  186  TYR186     -0.0198
    109  CD1       80.2490    0.6210   28.3730 C.ar  186  TYR186     -0.0009
    110  CD2       82.3420   -0.4010   28.9380 C.ar  186  TYR186     -0.0009
    111  CE1       80.9210    1.7260   27.8590 C.ar  186  TYR186      0.0417
    112  CE2       83.0190    0.6930   28.4300 C.ar  186  TYR186      0.0417
    113  CZ        82.3080    1.7550   27.8910 C.ar  186  TYR186      0.1957
    114  OH        82.9920    2.8290   27.3720 O.3   186  TYR186     -0.2866
@<TRIPOS>BOND
     1    22    21    2
     2    21    20    1
     3    19    20    1
     4    20    23    1
     5    14    13    1
     6    14    15    2
     7    13    12    1
     8    13    16    1
     9    23    24    1
    10    65    66    1
    11    57    58    1
    12    12    18    1
    13    16    17    1
    14    59    58    1
    15    59    60    2
    16    58    61    1
    17    66    69    1
    18    66    67    1
    19    24    26   ar
    20    24    25   ar
    21    63    62    1
    22    17    18    1
    23    69    70    1
    24    26    28   ar
    25    25    27   ar
    26    61    62    1
    27    67    68    2
    28    62    64    1
    29    70    72   ar
    30    70    71   ar
    31    72    74   ar
    32    28    29   ar
    33    27    29   ar
    34    46    45    2
    35    45    44    1
    36    71    73   ar
    37    74    75   ar
    38    73    75   ar
    39    75    76    1
    40    44    47    1
    41    44    43    1
    42   101    99   ar
    43   101   102   ar
    44    47    48    1
    45    99    97   ar
    46   102   100   ar
    47    41    40    1
    48    53    50   ar
    49    53    55   ar
    50    48    50   ar
    51    48    49   ar
    52    50    52   ar
    53    40    42    1
    54    40    37    1
    55    55    56   ar
    56    97    98   ar
    57    97    96    1
    58   100    98   ar
    59    39    38    2
    60    49    51   ar
    61    38    37    1
    62    96    93    1
    63    34    35    1
    64    34    31    1
    65    52    51   ar
    66    52    54   ar
    67    37    36    1
    68    93    92    1
    69    93    94    1
    70    56    54   ar
    71    95    94    2
    72     8    10   ar
    73     8     6   ar
    74    94   103   am
    75    30    31    1
    76    10    11   ar
    77    31    32    1
    78     5     6    1
    79     5     2    1
    80    33    32    2
    81     6     7   ar
    82     1     2    1
    83    11     9   ar
    84   114   113    1
    85   103   104    1
    86     7     9   ar
    87     2     3    1
    88   111   113   ar
    89   111   109   ar
    90   113   112   ar
    91    90    89    2
    92   109   108   ar
    93   104   105    1
    94   104   107    1
    95   112   110   ar
    96   108   110   ar
    97   108   107    1
    98    89    91   am
    99    89    88    1
   100     3     4    2
   101   105   106    2
   102    80    79    2
   103    83    77    1
   104    83    82    1
   105    88    85    1
   106    79    84   am
   107    79    78    1
   108    85    84    1
   109    85    86    1
   110    77    78    1
   111    82    81    1
   112    78    81    1
   113    86    87    2
