@<TRIPOS>MOLECULE
tmp/1px0C00.pdb
 122 120 0 0 0
SMALL
GASTEIGER

@<TRIPOS>ATOM
      1  N         50.3950   32.3260   38.0650 N.3    11  PHE11      -0.1241
      2  CA        49.8390   31.1780   37.3670 C.3    11  PHE11       0.1605
      3  C         50.9560   30.3530   36.7070 C.2    11  PHE11       0.2264
      4  O         51.8820   29.9220   37.3850 O.2    11  PHE11      -0.2867
      5  CB        48.8350   31.7120   36.3380 C.3    11  PHE11       0.0534
      6  CG        47.8650   30.6880   35.8070 C.ar   11  PHE11      -0.0203
      7  CD1       47.5830   29.5240   36.5130 C.ar   11  PHE11      -0.0042
      8  CD2       47.1790   30.9350   34.6170 C.ar   11  PHE11      -0.0042
      9  CE1       46.6330   28.6240   36.0470 C.ar   11  PHE11      -0.0003
     10  CE2       46.2250   30.0440   34.1420 C.ar   11  PHE11      -0.0003
     11  CZ        45.9490   28.8840   34.8570 C.ar   11  PHE11      -0.0000
     12  N         38.7420   36.3340   40.1200 N.3    83  PRO83      -0.2116
     13  CA        37.2860   36.2140   40.2500 C.3    83  PRO83       0.1372
     14  C         36.7930   35.9410   41.6670 C.2    83  PRO83       0.2244
     15  O         37.5520   35.5050   42.5330 O.2    83  PRO83      -0.2868
     16  CB        36.9680   35.0630   39.3060 C.3    83  PRO83       0.0268
     17  CG        38.1290   34.1390   39.5590 C.3    83  PRO83       0.0207
     18  CD        39.3320   35.0760   39.6250 C.3    83  PRO83       0.0892
     19  N         33.6180   33.9810   43.8010 N.3    85  PHE85      -0.1241
     20  CA        32.5830   32.9740   43.6020 C.3    85  PHE85       0.1605
     21  C         31.3140   33.7340   43.9460 C.2    85  PHE85       0.2264
     22  O         31.2410   34.3870   44.9890 O.2    85  PHE85      -0.2867
     23  CB        32.7830   31.8040   44.5650 C.3    85  PHE85       0.0534
     24  CG        33.6860   30.7250   44.0410 C.ar   85  PHE85      -0.0203
     25  CD1       33.1750   29.6900   43.2600 C.ar   85  PHE85      -0.0042
     26  CD2       35.0430   30.7280   44.3410 C.ar   85  PHE85      -0.0042
     27  CE1       34.0010   28.6740   42.7900 C.ar   85  PHE85      -0.0003
     28  CE2       35.8760   29.7200   43.8780 C.ar   85  PHE85      -0.0003
     29  CZ        35.3580   28.6870   43.1000 C.ar   85  PHE85      -0.0000
     30  N         42.3180   27.2200   31.3630 N.3   131  SER131     -0.1217
     31  CA        41.8190   26.5390   32.5520 C.3   131  SER131      0.1889
     32  C         41.1290   25.2360   32.1930 C.2   131  SER131      0.2288
     33  O         40.6950   25.0490   31.0570 O.2   131  SER131     -0.2866
     34  CB        40.8310   27.4380   33.2950 C.3   131  SER131      0.2089
     35  OG        40.2260   26.7360   34.3680 O.3   131  SER131     -0.2183
     36  N         38.6440   24.2110   34.2190 N.3   133  THR133     -0.1218
     37  CA        37.3130   24.3560   34.8090 C.3   133  THR133      0.1862
     38  C         36.1670   24.1460   33.8150 C.2   133  THR133      0.2287
     39  O         35.0940   23.6770   34.1900 O.2   133  THR133     -0.2866
     40  CB        37.1420   25.7230   35.5400 C.3   133  THR133      0.1770
     41  OG1       37.4530   26.8100   34.6620 O.3   133  THR133     -0.2211
     42  CG2       38.0590   25.7760   36.7580 C.3   133  THR133      0.0375
     43  N         32.4130   24.2190   38.6230 N.3   138  TRP138     -0.1241
     44  CA        31.9340   24.2350   40.0000 C.3   138  TRP138      0.1605
     45  C         30.7630   25.1940   39.9220 C.2   138  TRP138      0.2264
     46  O         30.6560   25.9640   38.9610 O.2   138  TRP138     -0.2867
     47  CB        32.9470   24.8610   40.9530 C.3   138  TRP138      0.0550
     48  CG        34.1790   24.0870   41.1830 C.ar  138  TRP138      0.0003
     49  CD1       34.2800   22.8210   41.6790 C.ar  138  TRP138      0.0946
     50  CD2       35.5140   24.5590   41.0050 C.ar  138  TRP138      0.0152
     51  NE1       35.6070   22.4790   41.8280 N.ar  138  TRP138     -0.2442
     52  CE2       36.3830   23.5310   41.4210 C.ar  138  TRP138      0.0810
     53  CE3       36.0590   25.7590   40.5360 C.ar  138  TRP138      0.0012
     54  CZ2       37.7790   23.6640   41.3800 C.ar  138  TRP138      0.0191
     55  CZ3       37.4360   25.8910   40.4960 C.ar  138  TRP138      0.0001
     56  CH2       38.2820   24.8490   40.9170 C.ar  138  TRP138      0.0015
     57  N         30.7920   30.0920   39.7290 N.3   141  LEU141     -0.1245
     58  CA        32.0150   30.6610   39.1570 C.3   141  LEU141      0.1561
     59  C         31.7360   30.7640   37.6630 C.2   141  LEU141      0.2260
     60  O         32.6120   30.5460   36.8340 O.2   141  LEU141     -0.2867
     61  CB        33.2230   29.7460   39.4090 C.3   141  LEU141      0.0270
     62  CG        34.5950   30.3640   39.1150 C.3   141  LEU141      0.0019
     63  CD1       34.8670   31.4900   40.1080 C.3   141  LEU141      0.0001
     64  CD2       35.6890   29.2870   39.2140 C.3   141  LEU141      0.0001
     65  N         34.1110   33.3390   35.2990 N.3   144  TYR144     -0.1241
     66  CA        35.4550   32.8330   35.0380 C.3   144  TYR144      0.1605
     67  C         35.4940   31.5890   34.1510 C.2   144  TYR144      0.2264
     68  O         36.2400   31.5320   33.1750 O.2   144  TYR144     -0.2867
     69  CB        36.1500   32.5460   36.3720 C.3   144  TYR144      0.0534
     70  CG        37.5390   31.9710   36.2370 C.ar  144  TYR144     -0.0201
     71  CD1       37.7390   30.5910   36.1350 C.ar  144  TYR144     -0.0009
     72  CD2       38.6520   32.8080   36.1730 C.ar  144  TYR144     -0.0009
     73  CE1       39.0170   30.0610   35.9700 C.ar  144  TYR144      0.0417
     74  CE2       39.9360   32.2880   36.0080 C.ar  144  TYR144      0.0417
     75  CZ        40.1080   30.9160   35.9070 C.ar  144  TYR144      0.1957
     76  OH        41.3720   30.3980   35.7540 O.3   144  TYR144     -0.2866
     77  N         45.0660   24.2290   33.0250 N.3   174  PRO174     -0.2102
     78  CA        45.4150   23.6170   34.3050 C.3   174  PRO174      0.1504
     79  C         44.3550   23.7420   35.3860 C.2   174  PRO174      0.2575
     80  O         43.4150   24.5290   35.2810 O.2   174  PRO174     -0.2718
     81  CB        46.6860   24.3810   34.7300 C.3   174  PRO174      0.0282
     82  CG        47.0100   25.3360   33.5610 C.3   174  PRO174      0.0208
     83  CD        45.6820   25.5580   32.8960 C.3   174  PRO174      0.0893
     84  N         44.5160   22.9210   36.4150 N.am  175  ASN175     -0.1975
     85  CA        43.7010   23.0020   37.6170 C.3   175  ASN175      0.1688
     86  C         44.5510   22.3340   38.6790 C.2   175  ASN175      0.2292
     87  O         45.2730   21.3660   38.4020 O.2   175  ASN175     -0.2864
     88  CB        42.3350   22.3220   37.5210 C.3   175  ASN175      0.1181
     89  CG        41.3510   22.9040   38.5380 C.2   175  ASN175      0.2629
     90  OD1       41.7360   23.7510   39.3560 O.2   175  ASN175     -0.2716
     91  ND2       40.0880   22.4680   38.4910 N.am  175  ASN175     -0.0877
     92  N         47.1740   23.4200   39.9110 N.3   177  LEU177     -0.1245
     93  CA        48.5810   23.6020   39.5570 C.3   177  LEU177      0.1561
     94  C         49.2240   24.5180   40.5970 C.2   177  LEU177      0.2260
     95  O         48.8670   25.6930   40.7140 O.2   177  LEU177     -0.2867
     96  CB        48.7210   24.2370   38.1680 C.3   177  LEU177      0.0270
     97  CG        50.1350   24.6780   37.7580 C.3   177  LEU177      0.0019
     98  CD1       51.0080   23.4630   37.5260 C.3   177  LEU177      0.0001
     99  CD2       50.0620   25.5220   36.4830 C.3   177  LEU177      0.0001
    100  N         45.5210   31.1690   41.9880 N.3   185  PHE185     -0.1227
    101  CA        44.9020   29.8870   42.0950 C.3   185  PHE185      0.1736
    102  C         45.4130   28.8840   43.1110 C.2   185  PHE185      0.2595
    103  O         44.6230   28.4650   43.9360 O.2   185  PHE185     -0.2718
    104  CB        44.7690   29.3400   40.6820 C.3   185  PHE185      0.0547
    105  CG        44.3840   30.4160   39.6770 C.ar  185  PHE185     -0.0202
    106  CD1       44.9130   30.4260   38.3940 C.ar  185  PHE185     -0.0042
    107  CD2       43.5110   31.4410   40.0430 C.ar  185  PHE185     -0.0042
    108  CE1       44.5840   31.4400   37.4840 C.ar  185  PHE185     -0.0003
    109  CE2       43.1700   32.4560   39.1520 C.ar  185  PHE185     -0.0003
    110  CZ        43.7090   32.4560   37.8650 C.ar  185  PHE185     -0.0000
    111  N         46.6860   28.4920   43.1060 N.am  186  TYR186     -0.1976
    112  CA        47.1090   27.5110   44.1110 C.3   186  TYR186      0.1639
    113  C         48.4480   27.7410   44.8010 C.2   186  TYR186      0.2290
    114  O         49.3980   26.9900   44.5920 O.2   186  TYR186     -0.2864
    115  CB        47.0810   26.1000   43.5060 C.3   186  TYR186      0.0560
    116  CG        45.6950   25.6550   43.1080 C.ar  186  TYR186     -0.0198
    117  CD1       45.1910   25.9160   41.8300 C.ar  186  TYR186     -0.0009
    118  CD2       44.8590   25.0260   44.0300 C.ar  186  TYR186     -0.0009
    119  CE1       43.8840   25.5600   41.4890 C.ar  186  TYR186      0.0417
    120  CE2       43.5620   24.6720   43.7040 C.ar  186  TYR186      0.0417
    121  CZ        43.0750   24.9390   42.4350 C.ar  186  TYR186      0.1957
    122  OH        41.7770   24.5840   42.1210 O.3   186  TYR186     -0.2866
@<TRIPOS>BOND
     1    33    32    2
     2    30    31    1
     3    32    31    1
     4    31    34    1
     5    83    77    1
     6    83    82    1
     7    77    78    1
     8    68    67    2
     9    34    35    1
    10    82    81    1
    11    38    39    2
    12    38    37    1
    13    10     8   ar
    14    10    11   ar
    15    67    66    1
    16    36    37    1
    17    78    81    1
    18    78    79    1
    19     8     6   ar
    20    41    40    1
    21    37    40    1
    22    11     9   ar
    23    66    65    1
    24    66    69    1
    25    80    79    2
    26    79    84   am
    27    40    42    1
    28    76    75    1
    29     6     5    1
    30     6     7   ar
    31    75    73   ar
    32    75    74   ar
    33    73    71   ar
    34    74    72   ar
    35     9     7   ar
    36    71    70   ar
    37    72    70   ar
    38    70    69    1
    39     5     2    1
    40    84    85    1
    41    99    97    1
    42     3     2    1
    43     3     4    2
    44    60    59    2
    45     2     1    1
    46   108   110   ar
    47   108   106   ar
    48    88    85    1
    49    88    89    1
    50    98    97    1
    51    85    86    1
    52    59    58    1
    53    97    96    1
    54   110   109   ar
    55    96    93    1
    56   106   105   ar
    57    87    86    2
    58    91    89   am
    59    89    90    2
    60    43    44    1
    61    46    45    2
    62    62    64    1
    63    62    61    1
    64    62    63    1
    65   109   107   ar
    66    58    61    1
    67    58    57    1
    68    16    17    1
    69    16    13    1
    70    93    92    1
    71    93    94    1
    72    17    18    1
    73    18    12    1
    74   105   107   ar
    75   105   104    1
    76    45    44    1
    77    44    47    1
    78    12    13    1
    79    13    14    1
    80    55    53   ar
    81    55    56   ar
    82    53    50   ar
    83    94    95    2
    84   104   101    1
    85    56    54   ar
    86    47    48    1
    87    50    48   ar
    88    50    52   ar
    89    48    49   ar
    90    54    52   ar
    91    52    51   ar
    92   119   117   ar
    93   119   121   ar
    94    14    15    2
    95    49    51   ar
    96   117   116   ar
    97   100   101    1
    98   101   102    1
    99   122   121    1
   100   121   120   ar
   101    27    29   ar
   102    27    25   ar
   103    29    28   ar
   104   111   102   am
   105   111   112    1
   106   116   115    1
   107   116   118   ar
   108   102   103    2
   109    25    24   ar
   110   115   112    1
   111    20    19    1
   112    20    21    1
   113    20    23    1
   114   120   118   ar
   115    28    26   ar
   116    21    22    2
   117    24    26   ar
   118    24    23    1
   119   112   113    1
   120   114   113    2
