@<TRIPOS>MOLECULE
tmp/1px8A00.pdb
 133 131 0 0 0
SMALL
GASTEIGER

@<TRIPOS>ATOM
      1  N         36.5080   40.6490   32.5970 N.3    54  HIS54      -0.1241
      2  CA        35.3840   40.5800   31.6590 C.3    54  HIS54       0.1621
      3  C         34.1190   41.1270   32.2960 C.2    54  HIS54       0.2264
      4  O         34.1240   41.5920   33.4290 O.2    54  HIS54      -0.2867
      5  CB        35.0590   39.1340   31.2640 C.3    54  HIS54       0.0745
      6  CG        36.2520   38.2590   31.0460 C.ar   54  HIS54       0.0817
      7  ND1       37.3540   38.6590   30.3210 N.ar   54  HIS54      -0.2268
      8  CD2       36.4740   36.9650   31.3840 C.ar   54  HIS54       0.1154
      9  CE1       38.2010   37.6480   30.2180 C.ar   54  HIS54       0.1986
     10  NE2       37.6900   36.6090   30.8530 N.ar   54  HIS54      -0.2212
     11  N         30.6510   30.1980   30.8210 N.3   115  PHE115     -0.1241
     12  CA        30.8480   30.2740   32.2660 C.3   115  PHE115      0.1605
     13  C         29.5930   29.9920   33.0900 C.2   115  PHE115      0.2264
     14  O         28.4820   29.9300   32.5640 O.2   115  PHE115     -0.2867
     15  CB        31.3770   31.6600   32.6360 C.3   115  PHE115      0.0534
     16  CG        32.7110   31.9810   32.0450 C.ar  115  PHE115     -0.0203
     17  CD1       32.9970   33.2720   31.6270 C.ar  115  PHE115     -0.0042
     18  CD2       33.6980   31.0070   31.9490 C.ar  115  PHE115     -0.0042
     19  CE1       34.2490   33.5980   31.1230 C.ar  115  PHE115     -0.0003
     20  CE2       34.9610   31.3200   31.4450 C.ar  115  PHE115     -0.0003
     21  CZ        35.2360   32.6210   31.0320 C.ar  115  PHE115     -0.0000
     22  N         36.8380   38.9040   24.0810 N.3   159  ASN159     -0.1225
     23  CA        37.7700   37.9830   24.7250 C.3   159  ASN159      0.1785
     24  C         37.9070   36.6930   23.9270 C.2   159  ASN159      0.2597
     25  O         36.9100   36.1300   23.4870 O.2   159  ASN159     -0.2718
     26  CB        37.2950   37.6370   26.1360 C.3   159  ASN159      0.1169
     27  CG        38.3080   36.8090   26.8950 C.2   159  ASN159      0.2627
     28  OD1       39.3860   37.3020   27.2330 O.2   159  ASN159     -0.2716
     29  ND2       37.9780   35.5390   27.1550 N.am  159  ASN159     -0.0877
     30  N         39.1390   36.2280   23.7510 N.am  160  GLU160     -0.1979
     31  CA        39.4120   35.0000   23.0030 C.3   160  GLU160      0.1602
     32  C         38.3590   34.6590   21.9350 C.2   160  GLU160      0.2287
     33  O         37.7510   33.5880   21.9760 O.2   160  GLU160     -0.2864
     34  CB        39.5410   33.8230   23.9690 C.3   160  GLU160      0.0415
     35  CG        40.7450   33.8760   24.8870 C.3   160  GLU160      0.1163
     36  CD        40.7590   32.7150   25.8660 C.2   160  GLU160      0.3649
     37  OE1       39.7280   32.4990   26.5360 O.co2 160  GLU160     -0.2457
     38  OE2       41.7880   32.0170   25.9740 O.co2 160  GLU160     -0.2457
     39  N         33.7940   31.4760   23.5170 N.3   166  PHE166     -0.1241
     40  CA        33.6830   32.9110   23.7420 C.3   166  PHE166      0.1605
     41  C         33.1310   33.7020   22.5620 C.2   166  PHE166      0.2264
     42  O         32.6780   34.8360   22.7250 O.2   166  PHE166     -0.2867
     43  CB        35.0380   33.4740   24.1710 C.3   166  PHE166      0.0534
     44  CG        35.5760   32.8430   25.4220 C.ar  166  PHE166     -0.0203
     45  CD1       36.4440   31.7570   25.3540 C.ar  166  PHE166     -0.0042
     46  CD2       35.1770   33.3040   26.6710 C.ar  166  PHE166     -0.0042
     47  CE1       36.9060   31.1370   26.5170 C.ar  166  PHE166     -0.0003
     48  CE2       35.6290   32.6940   27.8320 C.ar  166  PHE166     -0.0003
     49  CZ        36.4940   31.6090   27.7570 C.ar  166  PHE166     -0.0000
     50  N         46.6870   36.2980   25.1930 N.3   228  HIS228     -0.1241
     51  CA        46.8480   35.6300   26.4810 C.3   228  HIS228      0.1621
     52  C         47.9310   34.5690   26.3820 C.2   228  HIS228      0.2264
     53  O         48.3060   34.1550   25.2880 O.2   228  HIS228     -0.2867
     54  CB        45.5390   34.9770   26.8990 C.3   228  HIS228      0.0745
     55  CG        44.3820   35.9190   26.9240 C.ar  228  HIS228      0.0817
     56  ND1       43.0740   35.4880   26.9870 N.ar  228  HIS228     -0.2268
     57  CD2       44.3330   37.2720   26.8830 C.ar  228  HIS228      0.1154
     58  CE1       42.2680   36.5360   26.9820 C.ar  228  HIS228      0.1986
     59  NE2       43.0070   37.6300   26.9190 N.ar  228  HIS228     -0.2212
     60  N         49.4190   30.9210   28.5290 N.3   230  TYR230     -0.1241
     61  CA        49.4230   29.9540   29.6170 C.3   230  TYR230      0.1605
     62  C         50.3650   28.8190   29.2420 C.2   230  TYR230      0.2264
     63  O         50.8400   28.7610   28.1110 O.2   230  TYR230     -0.2867
     64  CB        48.0190   29.4100   29.8650 C.3   230  TYR230      0.0534
     65  CG        47.0390   30.4380   30.3800 C.ar  230  TYR230     -0.0201
     66  CD1       46.1790   31.1090   29.5120 C.ar  230  TYR230     -0.0009
     67  CD2       46.9470   30.7150   31.7440 C.ar  230  TYR230     -0.0009
     68  CE1       45.2480   32.0250   29.9900 C.ar  230  TYR230      0.0417
     69  CE2       46.0260   31.6270   32.2320 C.ar  230  TYR230      0.0417
     70  CZ        45.1790   32.2770   31.3540 C.ar  230  TYR230      0.1957
     71  OH        44.2630   33.1710   31.8500 O.3   230  TYR230     -0.2866
     72  N         46.5720   38.8180   29.9560 N.3   277  GLU277     -0.1245
     73  CA        46.2040   37.6830   30.7920 C.3   277  GLU277      0.1567
     74  C         47.2220   36.5430   30.7340 C.2   277  GLU277      0.2260
     75  O         47.5340   36.0410   29.6610 O.2   277  GLU277     -0.2867
     76  CB        44.8130   37.2120   30.3590 C.3   277  GLU277      0.0388
     77  CG        44.3810   35.8600   30.8420 C.3   277  GLU277      0.1160
     78  CD        42.9570   35.5310   30.4060 C.2   277  GLU277      0.3649
     79  OE1       42.6260   34.3340   30.3970 O.co2 277  GLU277     -0.2457
     80  OE2       42.1690   36.4630   30.0840 O.co2 277  GLU277     -0.2457
     81  N         45.3900   27.4940   33.0620 N.3   282  TYR282     -0.1241
     82  CA        44.3270   28.3770   32.6000 C.3   282  TYR282      0.1605
     83  C         42.9830   28.0230   33.2480 C.2   282  TYR282      0.2264
     84  O         41.9190   28.4800   32.8100 O.2   282  TYR282     -0.2867
     85  CB        44.2270   28.3360   31.0630 C.3   282  TYR282      0.0534
     86  CG        44.0740   26.9530   30.4510 C.ar  282  TYR282     -0.0201
     87  CD1       42.8760   26.2370   30.5590 C.ar  282  TYR282     -0.0009
     88  CD2       45.1310   26.3650   29.7530 C.ar  282  TYR282     -0.0009
     89  CE1       42.7400   24.9710   29.9850 C.ar  282  TYR282      0.0417
     90  CE2       45.0060   25.0990   29.1770 C.ar  282  TYR282      0.0417
     91  CZ        43.8110   24.4080   29.2940 C.ar  282  TYR282      0.1957
     92  OH        43.6950   23.1640   28.7170 O.3   282  TYR282     -0.2866
     93  N         40.5210   27.8660   36.8020 N.3   284  PRO284     -0.2116
     94  CA        40.3320   28.4430   38.1290 C.3   284  PRO284      0.1372
     95  C         40.1790   27.3650   39.2080 C.2   284  PRO284      0.2244
     96  O         39.6600   27.6320   40.2950 O.2   284  PRO284     -0.2868
     97  CB        39.0720   29.2780   37.9530 C.3   284  PRO284      0.0268
     98  CG        38.2770   28.4600   36.9990 C.3   284  PRO284      0.0207
     99  CD        39.3180   28.0550   35.9750 C.3   284  PRO284      0.0892
    100  N         46.7620   36.7070   35.8570 N.3   315  TRP315     -0.1241
    101  CA        45.3710   36.3140   36.0320 C.3   315  TRP315      0.1605
    102  C         45.2710   35.3150   37.1830 C.2   315  TRP315      0.2264
    103  O         45.6330   34.1600   36.9930 O.2   315  TRP315     -0.2867
    104  CB        44.9150   35.6870   34.7080 C.3   315  TRP315      0.0550
    105  CG        43.4760   35.3740   34.6000 C.ar  315  TRP315      0.0003
    106  CD1       42.8770   34.1770   34.8550 C.ar  315  TRP315      0.0946
    107  CD2       42.4370   36.2670   34.1920 C.ar  315  TRP315      0.0152
    108  NE1       41.5240   34.2650   34.6290 N.ar  315  TRP315     -0.2442
    109  CE2       41.2260   35.5390   34.2210 C.ar  315  TRP315      0.0810
    110  CE3       42.4100   37.6150   33.8040 C.ar  315  TRP315      0.0012
    111  CZ2       39.9940   36.1140   33.8770 C.ar  315  TRP315      0.0191
    112  CZ3       41.1850   38.1890   33.4610 C.ar  315  TRP315      0.0001
    113  CH2       39.9940   37.4330   33.5020 C.ar  315  TRP315      0.0015
    114  N         33.7470   31.9640   37.5040 N.3   323  GLU323     -0.1245
    115  CA        33.6080   31.2930   36.2140 C.3   323  GLU323      0.1567
    116  C         33.1600   29.8440   36.3340 C.2   323  GLU323      0.2260
    117  O         32.3290   29.3790   35.5510 O.2   323  GLU323     -0.2867
    118  CB        34.9050   31.4100   35.4190 C.3   323  GLU323      0.0388
    119  CG        34.9290   32.6780   34.5910 C.3   323  GLU323      0.1160
    120  CD        36.3090   33.0570   34.1160 C.2   323  GLU323      0.3649
    121  OE1       37.0740   32.1550   33.7100 O.co2 323  GLU323     -0.2457
    122  OE2       36.6180   34.2680   34.1420 O.co2 323  GLU323     -0.2457
    123  N         42.8460   31.3050   40.5310 N.3   335  PHE335     -0.1241
    124  CA        43.8900   32.1100   39.8770 C.3   335  PHE335      0.1605
    125  C         44.5650   33.1350   40.7870 C.2   335  PHE335      0.2264
    126  O         45.7670   33.3720   40.6880 O.2   335  PHE335     -0.2867
    127  CB        43.3110   32.8900   38.6950 C.3   335  PHE335      0.0534
    128  CG        42.8410   32.0390   37.5630 C.ar  335  PHE335     -0.0203
    129  CD1       41.5120   32.0970   37.1450 C.ar  335  PHE335     -0.0042
    130  CD2       43.7370   31.2310   36.8600 C.ar  335  PHE335     -0.0042
    131  CE1       41.0850   31.3640   36.0340 C.ar  335  PHE335     -0.0003
    132  CE2       43.3280   30.4990   35.7570 C.ar  335  PHE335     -0.0003
    133  CZ        42.0000   30.5620   35.3390 C.ar  335  PHE335     -0.0000
@<TRIPOS>BOND
     1    32    33    2
     2    32    31    1
     3    41    42    2
     4    41    40    1
     5    31    30    1
     6    31    34    1
     7    25    24    2
     8    39    40    1
     9    40    43    1
    10    30    24   am
    11    24    23    1
    12    34    35    1
    13    22    23    1
    14    43    44    1
    15    23    26    1
    16    35    36    1
    17    50    51    1
    18    53    52    2
    19    45    44   ar
    20    45    47   ar
    21    44    46   ar
    22    36    38   ar
    23    36    37   ar
    24    26    27    1
    25    52    51    1
    26    51    54    1
    27    47    49   ar
    28    46    48   ar
    29    57    59   ar
    30    57    55   ar
    31    27    29   am
    32    27    28    2
    33    54    55    1
    34    59    58   ar
    35    55    56   ar
    36    58    56   ar
    37    49    48   ar
    38    63    62    2
    39    60    61    1
    40    92    91    1
    41    90    91   ar
    42    90    88   ar
    43    62    61    1
    44    91    89   ar
    45    66    68   ar
    46    66    65   ar
    47    61    64    1
    48    75    74    2
    49    88    86   ar
    50    64    65    1
    51    72    73    1
    52    89    87   ar
    53    68    70   ar
    54    80    78   ar
    55     9     7   ar
    56     9    10   ar
    57     7     6   ar
    58    76    73    1
    59    76    77    1
    60    65    67   ar
    61    79    78   ar
    62    78    77    1
    63    86    87   ar
    64    86    85    1
    65    74    73    1
    66    11    12    1
    67    10     8   ar
    68    21    19   ar
    69    21    20   ar
    70     6     5    1
    71     6     8   ar
    72    85    82    1
    73    19    17   ar
    74     5     2    1
    75    70    71    1
    76    70    69   ar
    77    20    18   ar
    78    17    16   ar
    79     2     3    1
    80     2     1    1
    81    67    69   ar
    82    18    16   ar
    83    16    15    1
    84    12    15    1
    85    12    13    1
    86     3     4    2
    87    14    13    2
    88    82    81    1
    89    82    83    1
    90    84    83    2
    91   112   113   ar
    92   112   110   ar
    93   113   111   ar
    94   121   120   ar
    95   110   107   ar
    96   111   109   ar
    97   120   122   ar
    98   120   119    1
    99   107   109   ar
   100   107   105   ar
   101   109   108   ar
   102   119   118    1
   103   105   104    1
   104   105   106   ar
   105   108   106   ar
   106   104   101    1
   107   133   132   ar
   108   133   131   ar
   109   118   115    1
   110   117   116    2
   111   132   130   ar
   112   100   101    1
   113    99    93    1
   114    99    98    1
   115   101   102    1
   116   131   129   ar
   117   115   116    1
   118   115   114    1
   119    93    94    1
   120   130   128   ar
   121   103   102    2
   122    98    97    1
   123   129   128   ar
   124   128   127    1
   125    97    94    1
   126    94    95    1
   127   127   124    1
   128    95    96    2
   129   124   123    1
   130   124   125    1
   131   126   125    2
