@<TRIPOS>MOLECULE
tmp/1pxdA00.pdb
 115 114 0 0 0
SMALL
GASTEIGER

@<TRIPOS>ATOM
      1  N         36.8900   33.2590   22.8500 N.3     1  GLY1       -0.1210
      2  CA        35.8610   32.3610   22.2140 C.3     1  GLY1        0.1956
      3  C         36.0910   32.0740   20.7440 C.2     1  GLY1        0.2612
      4  O         37.0230   32.5870   20.1290 O.2     1  GLY1       -0.2717
      5  N         35.2360   31.2330   20.1760 N.am    2  LYS2       -0.1965
      6  CA        35.3370   30.8690   18.7690 C.3     2  LYS2        0.1728
      7  C         34.5020   31.8660   17.9570 C.2     2  LYS2        0.2616
      8  O         33.2750   31.9230   18.1010 O.2     2  LYS2       -0.2715
      9  CB        34.8150   29.4450   18.5540 C.3     2  LYS2        0.0311
     10  CG        35.0560   28.8970   17.1660 C.3     2  LYS2        0.0038
     11  CD        34.6330   27.4340   17.0690 C.3     2  LYS2        0.0206
     12  CE        35.0330   26.8440   15.7250 C.3     2  LYS2        0.1093
     13  NZ        34.6820   25.4000   15.6270 N.3     2  LYS2       -0.1314
     14  N         35.1800   32.6460   17.1220 N.am    3  ALA3       -0.1977
     15  CA        34.5340   33.6520   16.2920 C.3     3  ALA3        0.1597
     16  C         33.6950   33.0390   15.1830 C.2     3  ALA3        0.2287
     17  O         34.0230   31.9720   14.6570 O.2     3  ALA3       -0.2864
     18  CB        35.5920   34.5760   15.6810 C.3     3  ALA3        0.0319
     19  N         27.5910   26.8700   18.6210 N.3    45  LYS45      -0.1231
     20  CA        27.3790   26.2730   19.9390 C.3    45  LYS45       0.1693
     21  C         28.4010   26.5480   21.0290 C.2    45  LYS45       0.2593
     22  O         29.5970   26.6560   20.7650 O.2    45  LYS45      -0.2718
     23  CB        27.2560   24.7520   19.7720 C.3    45  LYS45       0.0285
     24  CG        26.0640   24.2940   18.9450 C.3    45  LYS45       0.0035
     25  CD        24.8220   24.1020   19.8060 C.3    45  LYS45       0.0206
     26  CE        25.0070   22.9350   20.7770 C.3    45  LYS45       0.1093
     27  NZ        23.8800   22.7900   21.7490 N.3    45  LYS45      -0.1314
     28  N         27.9050   26.6350   22.2610 N.am   46  SER46      -0.1938
     29  CA        28.7380   26.8340   23.4420 C.3    46  SER46       0.2055
     30  C         29.5520   25.5660   23.6560 C.2    46  SER46       0.2643
     31  O         29.1440   24.4800   23.2290 O.2    46  SER46      -0.2714
     32  CB        27.8700   27.0380   24.6840 C.3    46  SER46       0.2130
     33  OG        28.6340   26.8760   25.8690 O.3    46  SER46      -0.2179
     34  N         30.6930   25.7010   24.3180 N.am   47  PHE47      -0.1973
     35  CA        31.5390   24.5470   24.6070 C.3    47  PHE47       0.1639
     36  C         30.8760   23.6670   25.6740 C.2    47  PHE47       0.2290
     37  O         31.1060   22.4650   25.7180 O.2    47  PHE47      -0.2864
     38  CB        32.9260   25.0140   25.0740 C.3    47  PHE47       0.0560
     39  CG        33.8690   23.8890   25.4110 C.ar   47  PHE47      -0.0200
     40  CD1       33.9650   23.4120   26.7120 C.ar   47  PHE47      -0.0042
     41  CD2       34.6420   23.2870   24.4180 C.ar   47  PHE47      -0.0042
     42  CE1       34.8150   22.3520   27.0210 C.ar   47  PHE47      -0.0003
     43  CE2       35.4960   22.2250   24.7170 C.ar   47  PHE47      -0.0003
     44  CZ        35.5820   21.7580   26.0200 C.ar   47  PHE47      -0.0000
     45  N         30.8200   37.3780   33.7760 N.3    75  VAL75      -0.1231
     46  CA        30.5060   36.0150   34.1800 C.3    75  VAL75       0.1692
     47  C         31.8510   35.3080   34.2510 C.2    75  VAL75       0.2592
     48  O         32.5430   35.1760   33.2420 O.2    75  VAL75      -0.2718
     49  CB        29.5880   35.2790   33.1730 C.3    75  VAL75       0.0266
     50  CG1       29.3740   33.8200   33.6250 C.3    75  VAL75       0.0020
     51  CG2       28.2510   35.9950   33.0860 C.3    75  VAL75       0.0020
     52  N         32.2230   34.8860   35.4560 N.am   76  SER76      -0.1952
     53  CA        33.4860   34.1980   35.6910 C.3    76  SER76       0.1924
     54  C         34.7190   34.9410   35.1770 C.2    76  SER76       0.2314
     55  O         35.6140   34.3300   34.5850 O.2    76  SER76      -0.2863
     56  CB        33.4460   32.8000   35.0750 C.3    76  SER76       0.2116
     57  OG        32.4330   32.0070   35.6660 O.3    76  SER76      -0.2180
     58  N         35.0080   37.1910   32.6890 N.3    78  TYR78      -0.1241
     59  CA        34.9430   37.7600   31.3440 C.3    78  TYR78       0.1605
     60  C         33.6120   38.4310   31.0130 C.2    78  TYR78       0.2264
     61  O         32.5660   38.0730   31.5550 O.2    78  TYR78      -0.2867
     62  CB        35.2470   36.6810   30.3000 C.3    78  TYR78       0.0534
     63  CG        36.6570   36.1420   30.3790 C.ar   78  TYR78      -0.0201
     64  CD1       36.9340   34.9460   31.0380 C.ar   78  TYR78      -0.0009
     65  CD2       37.7200   36.8500   29.8220 C.ar   78  TYR78      -0.0009
     66  CE1       38.2390   34.4680   31.1420 C.ar   78  TYR78       0.0417
     67  CE2       39.0240   36.3860   29.9220 C.ar   78  TYR78       0.0417
     68  CZ        39.2780   35.1960   30.5840 C.ar   78  TYR78       0.1957
     69  OH        40.5760   34.7500   30.7020 O.3    78  TYR78      -0.2866
     70  N         31.6620   32.8450   20.4350 N.3   120  ILE120     -0.1231
     71  CA        31.1140   32.0720   21.5510 C.3   120  ILE120      0.1692
     72  C         32.1830   31.1420   22.1100 C.2   120  ILE120      0.2593
     73  O         32.8140   30.4020   21.3540 O.2   120  ILE120     -0.2718
     74  CB        29.9000   31.1980   21.1220 C.3   120  ILE120      0.0266
     75  CG1       28.7370   32.0900   20.6690 C.3   120  ILE120      0.0019
     76  CG2       29.4600   30.3120   22.2910 C.3   120  ILE120      0.0020
     77  CD1       27.5560   31.3170   20.0910 C.3   120  ILE120      0.0001
     78  N         32.3850   31.2170   23.4270 N.am  121  GLY121     -0.1942
     79  CA        33.3440   30.3660   24.1150 C.3   121  GLY121      0.2014
     80  C         32.4490   29.4570   24.9350 C.2   121  GLY121      0.2639
     81  O         31.9900   28.4330   24.4340 O.2   121  GLY121     -0.2714
     82  N         32.2030   29.8220   26.1870 N.am  122  TYR122     -0.1959
     83  CA        31.2770   29.0590   27.0130 C.3   122  TYR122      0.1771
     84  C         29.9470   29.7700   26.7690 C.2   122  TYR122      0.2619
     85  O         28.8830   29.1500   26.7530 O.2   122  TYR122     -0.2715
     86  CB        31.6360   29.1600   28.5020 C.3   122  TYR122      0.0574
     87  CG        32.5240   28.0460   29.0300 C.ar  122  TYR122     -0.0198
     88  CD1       33.4470   27.3990   28.2050 C.ar  122  TYR122     -0.0009
     89  CD2       32.4700   27.6750   30.3770 C.ar  122  TYR122     -0.0009
     90  CE1       34.3010   26.4040   28.7140 C.ar  122  TYR122      0.0417
     91  CE2       33.3170   26.6880   30.8970 C.ar  122  TYR122      0.0417
     92  CZ        34.2260   26.0630   30.0660 C.ar  122  TYR122      0.1957
     93  OH        35.0770   25.1120   30.5880 O.3   122  TYR122     -0.2866
     94  N         30.0360   31.0860   26.5620 N.am  123  TRP123     -0.1974
     95  CA        28.8660   31.9220   26.3260 C.3   123  TRP123      0.1640
     96  C         29.1150   32.8740   25.1560 C.2   123  TRP123      0.2290
     97  O         30.2360   32.9810   24.6390 O.2   123  TRP123     -0.2864
     98  CB        28.5550   32.7490   27.5770 C.3   123  TRP123      0.0576
     99  CG        28.3860   31.9240   28.8150 C.ar  123  TRP123      0.0006
    100  CD1       27.3030   31.1600   29.1590 C.ar  123  TRP123      0.0946
    101  CD2       29.3690   31.7050   29.8310 C.ar  123  TRP123      0.0152
    102  NE1       27.5550   30.4720   30.3240 N.ar  123  TRP123     -0.2442
    103  CE2       28.8150   30.7890   30.7590 C.ar  123  TRP123      0.0810
    104  CE3       30.6660   32.1930   30.0470 C.ar  123  TRP123      0.0012
    105  CZ2       29.5110   30.3530   31.8820 C.ar  123  TRP123      0.0191
    106  CZ3       31.3600   31.7580   31.1660 C.ar  123  TRP123      0.0001
    107  CH2       30.7810   30.8460   32.0680 C.ar  123  TRP123      0.0015
    108  N         30.2330   35.8140   23.6220 N.3   125  ASP125     -0.1239
    109  CA        31.1680   36.8530   24.0730 C.3   125  ASP125      0.1674
    110  C         30.7480   38.2500   23.6100 C.2   125  ASP125      0.2266
    111  O         30.7540   39.2110   24.3830 O.2   125  ASP125     -0.2867
    112  CB        32.5700   36.5470   23.5370 C.3   125  ASP125      0.1410
    113  CG        33.0620   35.1660   23.9530 C.2   125  ASP125      0.3668
    114  OD1       33.0690   34.9010   25.1800 O.co2 125  ASP125     -0.2456
    115  OD2       33.4360   34.3570   23.0700 O.co2 125  ASP125     -0.2456
@<TRIPOS>BOND
     1    17    16    2
     2    16    15    1
     3    13    12    1
     4    18    15    1
     5    12    11    1
     6    15    14    1
     7    11    10    1
     8    14     7   am
     9    10     9    1
    10     7     8    2
    11     7     6    1
    12     9     6    1
    13    19    20    1
    14     6     5    1
    15    24    23    1
    16    24    25    1
    17    23    20    1
    18    25    26    1
    19    20    21    1
    20    77    75    1
    21     4     3    2
    22     5     3   am
    23    70    71    1
    24    75    74    1
    25     3     2    1
    26    22    21    2
    27    26    27    1
    28    21    28   am
    29    74    71    1
    30    74    76    1
    31    73    72    2
    32    71    72    1
    33    72    78   am
    34     2     1    1
    35    28    29    1
    36   115   113   ar
    37    31    30    2
    38    78    79    1
    39    29    30    1
    40    29    32    1
    41   112   113    1
    42   112   109    1
    43   110   109    1
    44   110   111    2
    45   108   109    1
    46    30    34   am
    47   113   114   ar
    48    79    80    1
    49    34    35    1
    50    41    43   ar
    51    41    39   ar
    52    81    80    2
    53    35    38    1
    54    35    36    1
    55    97    96    2
    56    32    33    1
    57    43    44   ar
    58    80    82   am
    59    38    39    1
    60    96    95    1
    61    39    40   ar
    62    36    37    2
    63    44    42   ar
    64    82    83    1
    65    95    94    1
    66    95    98    1
    67    94    84   am
    68    40    42   ar
    69    85    84    2
    70    84    83    1
    71    83    86    1
    72    98    99    1
    73    88    90   ar
    74    88    87   ar
    75    86    87    1
    76    90    92   ar
    77    99   100   ar
    78    99   101   ar
    79    87    89   ar
    80   100   102   ar
    81    65    67   ar
    82    65    63   ar
    83   101   104   ar
    84   101   103   ar
    85    67    68   ar
    86   104   106   ar
    87    92    93    1
    88    92    91   ar
    89    62    63    1
    90    62    59    1
    91   102   103   ar
    92    89    91   ar
    93    63    64   ar
    94    68    69    1
    95    68    66   ar
    96   103   105   ar
    97    60    59    1
    98    60    61    2
    99    64    66   ar
   100   106   107   ar
   101    59    58    1
   102   105   107   ar
   103    51    49    1
   104    49    50    1
   105    49    46    1
   106    48    47    2
   107    45    46    1
   108    46    47    1
   109    47    52   am
   110    55    54    2
   111    56    57    1
   112    56    53    1
   113    54    53    1
   114    52    53    1
