@<TRIPOS>MOLECULE
tmp/1pxhA00.pdb
 175 167 0 0 0
SMALL
GASTEIGER

@<TRIPOS>ATOM
      1  N         20.8870   16.7840   -0.2350 N.3    23  ARG23      -0.1245
      2  CA        19.4280   16.8000   -0.2980 C.3    23  ARG23       0.1563
      3  C         18.9510   16.6490   -1.7400 C.2    23  ARG23       0.2260
      4  O         17.9550   15.9810   -2.0120 O.2    23  ARG23      -0.2867
      5  CB        18.8880   18.1130    0.2740 C.3    23  ARG23       0.0307
      6  CG        18.9450   18.2080    1.7890 C.3    23  ARG23       0.0489
      7  CD        18.8750   19.6520    2.2510 C.3    23  ARG23       0.2205
      8  NE        17.8010   20.4030    1.6060 N.pl3  23  ARG23      -0.0865
      9  CZ        16.5050   20.1880    1.8080 C.cat  23  ARG23       0.5346
     10  NH1       16.1080   19.2380    2.6460 N.pl3  23  ARG23       0.1354
     11  NH2       15.6040   20.9260    1.1730 N.pl3  23  ARG23       0.1354
     12  N         -2.8620    7.3300    9.3860 N.3    40  LYS40      -0.1245
     13  CA        -2.6140    8.7240    9.7200 C.3    40  LYS40       0.1561
     14  C         -2.2380    8.9390   11.1850 C.2    40  LYS40       0.2260
     15  O         -1.3110    9.6940   11.4840 O.2    40  LYS40      -0.2867
     16  CB        -3.8360    9.5810    9.3690 C.3    40  LYS40       0.0271
     17  CG        -3.4820   11.0180    9.0000 C.3    40  LYS40       0.0035
     18  CD        -4.7140   11.8270    8.5980 C.3    40  LYS40       0.0206
     19  CE        -5.4930   12.2940    9.8160 C.3    40  LYS40       0.1093
     20  NZ        -4.6760   13.2100   10.6630 N.3    40  LYS40      -0.1314
     21  N          1.5640    8.2050   12.4580 N.3    43  ASN43      -0.1225
     22  CA         2.6830    9.0450   12.0490 C.3    43  ASN43       0.1785
     23  C          2.6460   10.3250   12.8570 C.2    43  ASN43       0.2597
     24  O          1.6030   10.9790   12.9560 O.2    43  ASN43      -0.2718
     25  CB         2.6020    9.3850   10.5570 C.3    43  ASN43       0.1169
     26  CG         2.7510    8.1620    9.6720 C.2    43  ASN43       0.2627
     27  OD1        3.7300    7.4240    9.7780 O.2    43  ASN43      -0.2716
     28  ND2        1.7810    7.9420    8.7910 N.am   43  ASN43      -0.0877
     29  N          3.7810   10.6800   13.4470 N.am   44  ARG44      -0.1966
     30  CA         3.8630   11.8960   14.2410 C.3    44  ARG44       0.1729
     31  C          3.8590   13.1190   13.3190 C.2    44  ARG44       0.2616
     32  O          3.2640   14.1480   13.6410 O.2    44  ARG44      -0.2715
     33  CB         5.1400   11.8830   15.0910 C.3    44  ARG44       0.0348
     34  CG         5.3330   13.1160   15.9840 C.3    44  ARG44       0.0492
     35  CD         6.5710   12.9650   16.8650 C.3    44  ARG44       0.2205
     36  NE         6.3910   11.9590   17.9120 N.pl3  44  ARG44      -0.0865
     37  CZ         5.7060   12.1690   19.0310 C.cat  44  ARG44       0.5346
     38  NH1        5.1380   13.3500   19.2520 N.pl3  44  ARG44       0.1354
     39  NH2        5.5790   11.2000   19.9280 N.pl3  44  ARG44       0.1354
     40  N          4.5150   12.9970   12.1670 N.am   45  TYR45      -0.1960
     41  CA         4.6020   14.1060   11.2210 C.3    45  TYR45       0.1771
     42  C          4.1650   13.7180    9.8090 C.2    45  TYR45       0.2619
     43  O          4.4920   12.6360    9.3140 O.2    45  TYR45      -0.2715
     44  CB         6.0400   14.6360   11.1630 C.3    45  TYR45       0.0574
     45  CG         6.6110   15.0580   12.4950 C.ar   45  TYR45      -0.0198
     46  CD1        6.1750   16.2240   13.1310 C.ar   45  TYR45      -0.0009
     47  CD2        7.6030   14.2990   13.1170 C.ar   45  TYR45      -0.0009
     48  CE1        6.7170   16.6230   14.3490 C.ar   45  TYR45       0.0417
     49  CE2        8.1480   14.6850   14.3290 C.ar   45  TYR45       0.0417
     50  CZ         7.7050   15.8470   14.9410 C.ar   45  TYR45       0.1957
     51  OH         8.2660   16.2330   16.1340 O.3    45  TYR45      -0.2866
     52  N          3.4410   14.6280    9.1670 N.am   46  ARG46      -0.1963
     53  CA         2.9470   14.4410    7.8080 C.3    46  ARG46       0.1729
     54  C          4.0780   14.3440    6.7810 C.2    46  ARG46       0.2616
     55  O          3.9720   13.6260    5.7870 O.2    46  ARG46      -0.2715
     56  CB         2.0250   15.6170    7.4340 C.3    46  ARG46       0.0348
     57  CG         1.6720   15.7000    5.9490 C.3    46  ARG46       0.0492
     58  CD         0.7560   16.8870    5.6280 C.3    46  ARG46       0.2205
     59  NE         1.3820   18.1880    5.8670 N.pl3  46  ARG46      -0.0865
     60  CZ         0.8170   19.3550    5.5580 C.cat  46  ARG46       0.5346
     61  NH1       -0.3850   19.3890    4.9960 N.pl3  46  ARG46       0.1354
     62  NH2        1.4510   20.4930    5.8070 N.pl3  46  ARG46       0.1354
     63  N          5.1590   15.0710    7.0260 N.am   47  ASP47      -0.1957
     64  CA         6.2860   15.0990    6.1030 C.3    47  ASP47       0.1840
     65  C          7.4300   14.1290    6.4220 C.2    47  ASP47       0.2621
     66  O          8.5190   14.2450    5.8600 O.2    47  ASP47      -0.2715
     67  CB         6.8230   16.5310    6.0150 C.3    47  ASP47       0.1450
     68  CG         7.2840   17.0590    7.3570 C.2    47  ASP47       0.3671
     69  OD1        6.9060   16.4630    8.3910 O.co2  47  ASP47      -0.2456
     70  OD2        8.0140   18.0750    7.3810 O.co2  47  ASP47      -0.2456
     71  N          7.1920   13.1780    7.3190 N.am   48  VAL48      -0.1977
     72  CA         8.2230   12.1990    7.6550 C.3    48  VAL48       0.1596
     73  C          7.6220   10.8030    7.6300 C.2    48  VAL48       0.2287
     74  O          6.8690   10.4280    8.5310 O.2    48  VAL48      -0.2864
     75  CB         8.8340   12.4460    9.0550 C.3    48  VAL48       0.0276
     76  CG1        9.9510   11.4320    9.3090 C.3    48  VAL48       0.0022
     77  CG2        9.3880   13.8660    9.1490 C.3    48  VAL48       0.0022
     78  N          7.5420   16.0850   22.1010 N.3   119  LYS119     -0.1245
     79  CA         8.0110   15.4520   20.8710 C.3   119  LYS119      0.1561
     80  C          8.1120   13.9400   21.0210 C.2   119  LYS119      0.2260
     81  O          8.6840   13.2660   20.1630 O.2   119  LYS119     -0.2867
     82  CB         9.3840   16.0020   20.4650 C.3   119  LYS119      0.0271
     83  CG         9.3490   17.3170   19.6970 C.3   119  LYS119      0.0035
     84  CD        10.7230   17.6390   19.1130 C.3   119  LYS119      0.0206
     85  CE        10.6640   18.8140   18.1480 C.3   119  LYS119      0.1093
     86  NZ        10.1760   20.0530   18.8130 N.3   119  LYS119     -0.1314
     87  N         16.5750   19.5660   19.1770 N.3   180  ASP180     -0.1225
     88  CA        16.0640   19.2370   17.8540 C.3   180  ASP180      0.1805
     89  C         16.6990   20.2240   16.8730 C.2   180  ASP180      0.2597
     90  O         16.7750   21.4220   17.1510 O.2   180  ASP180     -0.2718
     91  CB        14.5340   19.3400   17.8240 C.3   180  ASP180      0.1424
     92  CG        14.0240   20.6840   18.3110 C.2   180  ASP180      0.3668
     93  OD1       14.3920   21.0960   19.4330 O.co2 180  ASP180     -0.2456
     94  OD2       13.2460   21.3250   17.5730 O.co2 180  ASP180     -0.2456
     95  N         17.1680   19.7080   15.7400 N.am  181  PHE181     -0.1976
     96  CA        17.8250   20.5150   14.7210 C.3   181  PHE181      0.1639
     97  C         19.1100   21.1220   15.2860 C.2   181  PHE181      0.2290
     98  O         19.6400   22.0920   14.7480 O.2   181  PHE181     -0.2864
     99  CB        16.8840   21.6170   14.2200 C.3   181  PHE181      0.0560
    100  CG        15.6350   21.0930   13.5690 C.ar  181  PHE181     -0.0200
    101  CD1       15.6860   20.5060   12.3110 C.ar  181  PHE181     -0.0042
    102  CD2       14.4140   21.1510   14.2300 C.ar  181  PHE181     -0.0042
    103  CE1       14.5420   19.9810   11.7210 C.ar  181  PHE181     -0.0003
    104  CE2       13.2610   20.6270   13.6490 C.ar  181  PHE181     -0.0003
    105  CZ        13.3260   20.0410   12.3920 C.ar  181  PHE181     -0.0000
    106  N         14.5880    9.6610   17.7300 N.3   214  CYS214     -0.1221
    107  CA        14.6250   11.0080   18.2720 C.3   214  CYS214      0.1808
    108  C         13.1640   11.4280   18.1340 C.2   214  CYS214      0.2602
    109  O         12.2810   10.6660   18.5260 O.2   214  CYS214     -0.2717
    110  CB        15.5830   11.9070   17.4670 C.3   214  CYS214      0.0970
    111  SG        15.6300   11.6740   15.6740 S.3   214  CYS214     -0.0800
    112  N         12.8730   12.5980   17.5810 N.am  215  SER215     -0.1938
    113  CA        11.4660   12.9690   17.4420 C.3   215  SER215      0.2055
    114  C         10.9210   12.4710   16.1000 C.2   215  SER215      0.2642
    115  O          9.9170   11.7600   16.0520 O.2   215  SER215     -0.2714
    116  CB        11.2960   14.4840   17.5570 C.3   215  SER215      0.2130
    117  OG         9.9280   14.8260   17.5840 O.3   215  SER215     -0.2179
    118  N         11.5900   12.8360   15.0120 N.am  216  ALA216     -0.1977
    119  CA        11.1660   12.4000   13.6830 C.3   216  ALA216      0.1597
    120  C         11.9060   11.1300   13.2710 C.2   216  ALA216      0.2287
    121  O         11.4580   10.3920   12.3910 O.2   216  ALA216     -0.2864
    122  CB        11.4320   13.4900   12.6700 C.3   216  ALA216      0.0319
    123  N         15.0870   11.1540   12.0500 N.3   218  ILE218     -0.1231
    124  CA        15.9170   11.4230   10.8720 C.3   218  ILE218      0.1692
    125  C         17.0980   12.3640   11.0930 C.2   218  ILE218      0.2593
    126  O         18.1880   12.1310   10.5660 O.2   218  ILE218     -0.2718
    127  CB        15.0750   11.9910    9.6990 C.3   218  ILE218      0.0266
    128  CG1       14.3970   13.3040   10.1140 C.3   218  ILE218      0.0019
    129  CG2       14.0390   10.9630    9.2690 C.3   218  ILE218      0.0020
    130  CD1       13.6090   13.9580    8.9920 C.3   218  ILE218      0.0001
    131  N         16.8840   13.4220   11.8660 N.am  219  GLY219     -0.1942
    132  CA        17.9560   14.3750   12.1040 C.3   219  GLY219      0.2014
    133  C         19.0360   13.8640   13.0340 C.2   219  GLY219      0.2638
    134  O         20.1530   13.5500   12.6110 O.2   219  GLY219     -0.2714
    135  N         18.7030   13.7920   14.3130 N.am  220  ARG220     -0.1977
    136  CA        19.6350   13.3140   15.3250 C.3   220  ARG220      0.1597
    137  C         19.9890   11.8330   15.1530 C.2   220  ARG220      0.2287
    138  O         21.1600   11.4440   15.2730 O.2   220  ARG220     -0.2864
    139  CB        19.0460   13.5890   16.7130 C.3   220  ARG220      0.0334
    140  CG        19.0980   15.0850   17.0790 C.3   220  ARG220      0.0492
    141  CD        18.1700   15.4610   18.2300 C.3   220  ARG220      0.2205
    142  NE        16.7620   15.4530   17.8300 N.pl3 220  ARG220     -0.0865
    143  CZ        15.7610   15.8400   18.6160 C.cat 220  ARG220      0.5346
    144  NH1       16.0050   16.2650   19.8490 N.pl3 220  ARG220      0.1354
    145  NH2       14.5160   15.8160   18.1640 N.pl3 220  ARG220      0.1354
    146  N         14.3040    8.6050    4.5170 N.3   257  MET257     -0.1230
    147  CA        14.4370    9.9960    4.0980 C.3   257  MET257      0.1702
    148  C         15.0010   10.9590    5.1370 C.2   257  MET257      0.2592
    149  O         14.9340   10.7170    6.3450 O.2   257  MET257     -0.2718
    150  CB        13.0730   10.5360    3.6680 C.3   257  MET257      0.0401
    151  CG        12.0340   10.4970    4.7870 C.3   257  MET257      0.0596
    152  SD        10.5650   11.5070    4.4780 S.3   257  MET257     -0.1393
    153  CE         9.8010   10.6030    3.1290 C.3   257  MET257      0.0692
    154  N         15.5470   12.0620    4.6240 N.am  258  GLY258     -0.1957
    155  CA        16.0670   13.1490    5.4390 C.3   258  GLY258      0.1869
    156  C         17.0850   12.9330    6.5370 C.2   258  GLY258      0.2309
    157  O         17.1850   13.7630    7.4310 O.2   258  GLY258     -0.2863
    158  N         19.4450   16.5530    9.3490 N.3   261  GLN261     -0.1245
    159  CA        18.5950   17.6800    8.9930 C.3   261  GLN261      0.1566
    160  C         19.1720   19.0910    8.8330 C.2   261  GLN261      0.2260
    161  O         18.4650   19.9790    8.3760 O.2   261  GLN261     -0.2867
    162  CB        17.4250   17.7190    9.9790 C.3   261  GLN261      0.0367
    163  CG        16.3670   16.6600    9.6850 C.3   261  GLN261      0.0905
    164  CD        15.5330   17.0230    8.4740 C.2   261  GLN261      0.2608
    165  OE1       14.7440   17.9640    8.5220 O.2   261  GLN261     -0.2717
    166  NE2       15.7160   16.2920    7.3760 N.am  261  GLN261     -0.0878
    167  N         24.6520   19.8250   11.4060 N.3   265  GLN265     -0.1245
    168  CA        24.6740   18.4380   11.8800 C.3   265  GLN265      0.1566
    169  C         25.6520   17.6680   10.9960 C.2   265  GLN265      0.2260
    170  O         26.3600   16.7760   11.4590 O.2   265  GLN265     -0.2867
    171  CB        23.2790   17.7960   11.8120 C.3   265  GLN265      0.0367
    172  CG        22.2600   18.4170   12.7610 C.3   265  GLN265      0.0905
    173  CD        20.9600   17.6240   12.8570 C.2   265  GLN265      0.2608
    174  OE1       20.4870   17.0480   11.8720 O.2   265  GLN265     -0.2717
    175  NE2       20.3650   17.6110   14.0480 N.am  265  GLN265     -0.0878
@<TRIPOS>BOND
     1     4     3    2
     2     3     2    1
     3     2     1    1
     4     2     5    1
     5     5     6    1
     6    11     9    1
     7     8     9    2
     8     8     7    1
     9     6     7    1
    10     9    10    1
    11   153   152    1
    12   150   147    1
    13   150   151    1
    14   147   146    1
    15   147   148    1
    16   152   151    1
    17   154   148   am
    18   154   155    1
    19    61    60    1
    20   148   149    2
    21   155   156    1
    22    60    62    1
    23    60    59    2
    24    58    59    1
    25    58    57    1
    26    55    54    2
    27    66    65    2
    28    57    56    1
    29    67    64    1
    30    67    68    1
    31    64    65    1
    32    64    63    1
    33    65    71   am
    34   156   157    2
    35    54    63   am
    36    54    53    1
    37    71    72    1
    38    68    70   ar
    39    68    69   ar
    40   166   164   am
    41    56    53    1
    42    73    72    1
    43    73    74    2
    44    72    75    1
    45    53    52    1
    46   161   160    2
    47   164   165    2
    48   164   163    1
    49    18    17    1
    50    18    19    1
    51    28    26   am
    52   160   159    1
    53   130   128    1
    54   159   158    1
    55   159   162    1
    56    17    16    1
    57    75    77    1
    58    75    76    1
    59    52    42   am
    60   129   127    1
    61    43    42    2
    62    16    13    1
    63    12    13    1
    64    26    27    2
    65    26    25    1
    66   163   162    1
    67   127   128    1
    68   127   124    1
    69    13    14    1
    70    42    41    1
    71    19    20    1
    72    25    22    1
    73   126   125    2
    74   124   125    1
    75   124   123    1
    76   169   170    2
    77   169   168    1
    78   125   131   am
    79    44    41    1
    80    44    45    1
    81    14    15    2
    82    41    40    1
    83   167   168    1
    84   103   101   ar
    85   103   105   ar
    86   171   168    1
    87   171   172    1
    88   131   132    1
    89   174   173    2
    90    22    21    1
    91    22    23    1
    92   132   133    1
    93    40    31   am
    94   101   100   ar
    95   121   120    2
    96   105   104   ar
    97    45    47   ar
    98    45    46   ar
    99   134   133    2
   100   122   119    1
   101   172   173    1
   102    23    24    2
   103    23    29   am
   104   173   175   am
   105   133   135   am
   106    47    49   ar
   107    46    48   ar
   108   120   119    1
   109    31    32    2
   110    31    30    1
   111    29    30    1
   112   100    99    1
   113   100   102   ar
   114   104   102   ar
   115   119   118    1
   116    99    96    1
   117    30    33    1
   118   135   136    1
   119    49    50   ar
   120    48    50   ar
   121    96    97    1
   122    96    95    1
   123    98    97    2
   124    50    51    1
   125   118   114   am
   126    33    34    1
   127   137   138    2
   128   137   136    1
   129   136   139    1
   130   111   110    1
   131    95    89   am
   132    34    35    1
   133   115   114    2
   134   114   113    1
   135   139   140    1
   136    35    36    1
   137    89    90    2
   138    89    88    1
   139   140   141    1
   140   113   116    1
   141   113   112    1
   142   110   107    1
   143   116   117    1
   144    94    92   ar
   145   112   108   am
   146   106   107    1
   147    91    88    1
   148    91    92    1
   149   142   141    1
   150   142   143    2
   151    88    87    1
   152    36    37    2
   153   108   107    1
   154   108   109    2
   155    85    86    1
   156    85    84    1
   157   145   143    1
   158    92    93   ar
   159   143   144    1
   160    37    38    1
   161    37    39    1
   162    84    83    1
   163    83    82    1
   164    81    80    2
   165    82    79    1
   166    79    80    1
   167    79    78    1
