@<TRIPOS>MOLECULE
tmp/1pxiA00.pdb
 154 145 0 0 0
SMALL
GASTEIGER

@<TRIPOS>ATOM
      1  N         13.8490   50.7860   30.1950 N.3    10  ILE10      -0.1231
      2  CA        12.7730   49.8350   29.9560 C.3    10  ILE10       0.1692
      3  C         12.7890   48.7330   31.0020 C.2    10  ILE10       0.2593
      4  O         11.7460   48.3600   31.5380 O.2    10  ILE10      -0.2718
      5  CB        12.8840   49.1910   28.5600 C.3    10  ILE10       0.0266
      6  CG1       12.7910   50.2720   27.4810 C.3    10  ILE10       0.0019
      7  CG2       11.7760   48.1590   28.3760 C.3    10  ILE10       0.0020
      8  CD1       12.8780   49.7410   26.0660 C.3    10  ILE10       0.0001
      9  N         13.9760   48.2130   31.2870 N.am   11  GLY11      -0.1942
     10  CA        14.0910   47.1570   32.2730 C.3    11  GLY11       0.2014
     11  C         15.4880   46.5820   32.3620 C.2    11  GLY11       0.2639
     12  O         16.4490   47.1740   31.8680 O.2    11  GLY11      -0.2714
     13  N         15.5960   45.4240   33.0040 N.am   12  GLU12      -0.1963
     14  CA        16.8740   44.7450   33.1680 C.3    12  GLU12       0.1733
     15  C         16.8630   43.5610   32.2080 C.2    12  GLU12       0.2617
     16  O         16.0160   42.6770   32.3200 O.2    12  GLU12      -0.2715
     17  CB        17.0300   44.2260   34.6040 C.3    12  GLU12       0.0429
     18  CG        16.3790   45.0790   35.6930 C.3    12  GLU12       0.1163
     19  CD        17.0750   46.4090   35.9320 C.2    12  GLU12       0.3649
     20  OE1       16.6150   47.1650   36.8150 O.co2  12  GLU12      -0.2457
     21  OE2       18.0770   46.7010   35.2470 O.co2  12  GLU12      -0.2457
     22  N         17.7930   43.5480   31.2610 N.am   13  GLY13      -0.1940
     23  CA        17.8480   42.4530   30.3090 C.3    13  GLY13       0.2014
     24  C         18.7970   41.3620   30.7640 C.2    13  GLY13       0.2639
     25  O         19.4480   41.4900   31.7970 O.2    13  GLY13      -0.2714
     26  N         18.8750   40.2850   29.9940 N.am   14  THR14      -0.1950
     27  CA        19.7590   39.1740   30.3280 C.3    14  THR14       0.1897
     28  C         21.2190   39.6200   30.4190 C.2    14  THR14       0.2313
     29  O         21.9700   39.1240   31.2550 O.2    14  THR14      -0.2863
     30  CB        19.6730   38.0490   29.2660 C.3    14  THR14       0.1794
     31  OG1       18.3360   37.5350   29.2110 O.3    14  THR14      -0.2208
     32  CG2       20.6380   36.9150   29.6060 C.3    14  THR14       0.0378
     33  N         18.4330   47.8380   29.6070 N.3    18  VAL18      -0.1245
     34  CA        17.8350   48.0800   28.3010 C.3    18  VAL18       0.1561
     35  C         17.1260   49.4220   28.3880 C.2    18  VAL18       0.2260
     36  O         16.2480   49.6160   29.2300 O.2    18  VAL18      -0.2867
     37  CB        16.8020   46.9990   27.9270 C.3    18  VAL18       0.0252
     38  CG1       16.1720   47.3330   26.5730 C.3    18  VAL18       0.0019
     39  CG2       17.4760   45.6300   27.8730 C.3    18  VAL18       0.0019
     40  N         15.7040   50.6440   20.9180 N.3    31  ALA31      -0.1245
     41  CA        15.9270   49.9250   22.1600 C.3    31  ALA31       0.1562
     42  C         17.4450   49.8190   22.2180 C.2    31  ALA31       0.2260
     43  O         18.0650   49.2180   21.3390 O.2    31  ALA31      -0.2867
     44  CB        15.2980   48.5410   22.0990 C.3    31  ALA31       0.0290
     45  N         20.6980   48.4300   24.1200 N.3    33  LYS33      -0.1245
     46  CA        21.0720   47.4010   25.0750 C.3    33  LYS33       0.1561
     47  C         22.5640   47.3370   25.3450 C.2    33  LYS33       0.2260
     48  O         23.3640   47.0930   24.4420 O.2    33  LYS33      -0.2867
     49  CB        20.5750   46.0350   24.5980 C.3    33  LYS33       0.0271
     50  CG        19.0860   46.0130   24.2880 C.3    33  LYS33       0.0035
     51  CD        18.5370   44.5940   24.1870 C.3    33  LYS33       0.0206
     52  CE        17.0400   44.6320   23.9320 C.3    33  LYS33       0.1093
     53  NZ        16.3840   43.3080   24.0650 N.3    33  LYS33      -0.1314
     54  N         12.8630   40.9240   15.8300 N.3    60  VAL60      -0.1245
     55  CA        13.2300   42.2850   16.1880 C.3    60  VAL60       0.1561
     56  C         14.5290   42.6140   15.4650 C.2    60  VAL60       0.2260
     57  O         15.5630   41.9890   15.6960 O.2    60  VAL60      -0.2867
     58  CB        13.4200   42.4270   17.7100 C.3    60  VAL60       0.0252
     59  CG1       13.8400   43.8500   18.0590 C.3    60  VAL60       0.0019
     60  CG2       12.1150   42.0930   18.4130 C.3    60  VAL60       0.0019
     61  N         18.5470   48.0190   18.7640 N.3    76  PHE76      -0.1227
     62  CA        17.4480   47.2300   18.2050 C.3    76  PHE76       0.1736
     63  C         16.1820   48.0150   17.8920 C.2    76  PHE76       0.2595
     64  O         15.9500   49.1010   18.4160 O.2    76  PHE76      -0.2718
     65  CB        17.0270   46.1340   19.1890 C.3    76  PHE76       0.0547
     66  CG        17.9830   44.9890   19.2930 C.ar   76  PHE76      -0.0202
     67  CD1       17.9660   43.9630   18.3500 C.ar   76  PHE76      -0.0042
     68  CD2       18.8690   44.9080   20.3590 C.ar   76  PHE76      -0.0042
     69  CE1       18.8160   42.8670   18.4740 C.ar   76  PHE76      -0.0003
     70  CE2       19.7220   43.8170   20.4890 C.ar   76  PHE76      -0.0003
     71  CZ        19.6930   42.7960   19.5440 C.ar   76  PHE76      -0.0000
     72  N         15.3470   47.4230   17.0490 N.am   77  GLU77      -0.1965
     73  CA        14.0460   47.9920   16.7210 C.3    77  GLU77       0.1733
     74  C         13.3090   48.0210   18.0700 C.2    77  GLU77       0.2616
     75  O         13.4950   47.1310   18.8960 O.2    77  GLU77      -0.2715
     76  CB        13.3090   47.0590   15.7570 C.3    77  GLU77       0.0429
     77  CG        11.8250   47.3400   15.6170 C.3    77  GLU77       0.1163
     78  CD        11.1060   46.2730   14.8020 C.2    77  GLU77       0.3649
     79  OE1        9.8910   46.4250   14.5700 O.co2  77  GLU77      -0.2457
     80  OE2       11.7560   45.2850   14.3970 O.co2  77  GLU77      -0.2457
     81  N         12.4790   49.0330   18.2950 N.am   78  PHE78      -0.1960
     82  CA        11.7500   49.1400   19.5540 C.3    78  PHE78       0.1771
     83  C         10.2730   48.7790   19.4450 C.2    78  PHE78       0.2619
     84  O          9.5870   49.2290   18.5270 O.2    78  PHE78      -0.2715
     85  CB        11.8640   50.5680   20.0990 C.3    78  PHE78       0.0574
     86  CG        10.9690   50.8480   21.2780 C.ar   78  PHE78      -0.0200
     87  CD1       11.4110   50.6180   22.5760 C.ar   78  PHE78      -0.0042
     88  CD2        9.6850   51.3520   21.0870 C.ar   78  PHE78      -0.0042
     89  CE1       10.5950   50.8880   23.6710 C.ar   78  PHE78      -0.0003
     90  CE2        8.8560   51.6250   22.1700 C.ar   78  PHE78      -0.0003
     91  CZ         9.3100   51.3940   23.4690 C.ar   78  PHE78      -0.0000
     92  N          9.7940   47.9610   20.3830 N.am   79  LEU79      -0.1977
     93  CA         8.3780   47.5900   20.4470 C.3    79  LEU79       0.1596
     94  C          7.8920   47.9750   21.8460 C.2    79  LEU79       0.2287
     95  O          8.6300   47.8450   22.8250 O.2    79  LEU79      -0.2864
     96  CB         8.1690   46.0960   20.1950 C.3    79  LEU79       0.0297
     97  CG         8.1400   45.6990   18.7170 C.3    79  LEU79       0.0022
     98  CD1        9.5650   45.5410   18.2090 C.3    79  LEU79       0.0001
     99  CD2        7.3640   44.3920   18.5500 C.3    79  LEU79       0.0001
    100  N          5.9040   43.5450   25.9380 N.3    82  ASP82      -0.1239
    101  CA         6.2800   42.1450   25.7680 C.3    82  ASP82       0.1674
    102  C          5.0950   41.2470   26.1020 C.2    82  ASP82       0.2266
    103  O          4.0980   41.7090   26.6620 O.2    82  ASP82      -0.2867
    104  CB         7.4940   41.7830   26.6350 C.3    82  ASP82       0.1410
    105  CG         7.2280   41.9270   28.1240 C.2    82  ASP82       0.3668
    106  OD1        6.1660   41.4780   28.6000 O.co2  82  ASP82      -0.2456
    107  OD2        8.0960   42.4820   28.8240 O.co2  82  ASP82      -0.2456
    108  N          3.9890   41.0070   29.9860 N.3    85  LYS85      -0.1245
    109  CA         3.1020   42.0610   30.4690 C.3    85  LYS85       0.1561
    110  C          1.6900   41.9100   29.9060 C.2    85  LYS85       0.2260
    111  O          0.7040   42.0830   30.6280 O.2    85  LYS85      -0.2867
    112  CB         3.6640   43.4380   30.0970 C.3    85  LYS85       0.0271
    113  CG         4.9290   43.8070   30.8480 C.3    85  LYS85       0.0035
    114  CD         5.6200   45.0230   30.2360 C.3    85  LYS85       0.0206
    115  CE         6.0960   44.7150   28.8190 C.3    85  LYS85       0.1093
    116  NZ         6.9100   45.7990   28.2150 N.3    85  LYS85      -0.1314
    117  N          9.2510   37.2960   28.1690 N.3   127  GLN127     -0.1231
    118  CA         9.9510   38.5710   28.2840 C.3   127  GLN127      0.1698
    119  C         10.5740   39.0700   26.9740 C.2   127  GLN127      0.2592
    120  O         10.6710   40.2820   26.7620 O.2   127  GLN127     -0.2718
    121  CB        11.0410   38.4920   29.3630 C.3   127  GLN127      0.0381
    122  CG        10.5460   38.1320   30.7600 C.3   127  GLN127      0.0905
    123  CD        10.5210   36.6320   31.0240 C.2   127  GLN127      0.2608
    124  OE1        9.6960   35.9000   30.4770 O.2   127  GLN127     -0.2717
    125  NE2       11.4420   36.1670   31.8700 N.am  127  GLN127     -0.0878
    126  N         11.0100   38.1610   26.1050 N.am  128  ASN128     -0.1974
    127  CA        11.6000   38.6000   24.8410 C.3   128  ASN128      0.1688
    128  C         10.7450   38.3770   23.5930 C.2   128  ASN128      0.2292
    129  O         11.2620   38.2660   22.4810 O.2   128  ASN128     -0.2864
    130  CB        13.0110   38.0170   24.6360 C.3   128  ASN128      0.1181
    131  CG        13.0740   36.5160   24.8130 C.2   128  ASN128      0.2629
    132  OD1       12.1890   35.7840   24.3770 O.2   128  ASN128     -0.2716
    133  ND2       14.1500   36.0470   25.4390 N.am  128  ASN128     -0.0877
    134  N          8.0110   40.3900   21.7990 N.3   130  LEU130     -0.1245
    135  CA         7.4310   41.7310   21.7930 C.3   130  LEU130      0.1561
    136  C          6.2680   41.9040   20.8320 C.2   130  LEU130      0.2260
    137  O          6.2640   41.3440   19.7390 O.2   130  LEU130     -0.2867
    138  CB         8.5270   42.7490   21.4700 C.3   130  LEU130      0.0270
    139  CG         9.8250   42.5660   22.2710 C.3   130  LEU130      0.0019
    140  CD1       10.8030   43.6450   21.8650 C.3   130  LEU130      0.0001
    141  CD2        9.5520   42.6380   23.7710 C.3   130  LEU130      0.0001
    142  N         12.7180   38.7540   20.1910 N.3   140  ALA140     -0.1231
    143  CA        13.8140   39.6600   20.5090 C.3   140  ALA140      0.1694
    144  C         15.0560   38.9040   20.9720 C.2   140  ALA140      0.2592
    145  O         14.9510   37.8140   21.5290 O.2   140  ALA140     -0.2718
    146  CB        13.3780   40.6340   21.5990 C.3   140  ALA140      0.0304
    147  N         16.2210   39.5080   20.7510 N.am  141  ASP141     -0.1974
    148  CA        17.5130   38.9510   21.1530 C.3   141  ASP141      0.1709
    149  C         17.8750   37.6090   20.5380 C.2   141  ASP141      0.2293
    150  O         18.5890   36.8090   21.1450 O.2   141  ASP141     -0.2864
    151  CB        17.5970   38.8420   22.6790 C.3   141  ASP141      0.1436
    152  CG        17.4390   40.1800   23.3660 C.2   141  ASP141      0.3671
    153  OD1       17.5130   41.2170   22.6760 O.co2 141  ASP141     -0.2456
    154  OD2       17.2430   40.1990   24.5970 O.co2 141  ASP141     -0.2456
@<TRIPOS>BOND
     1    80    78   ar
     2    79    78   ar
     3    78    77    1
     4    56    57    2
     5    56    55    1
     6    77    76    1
     7    76    73    1
     8    54    55    1
     9    55    58    1
    10    73    72    1
    11    73    74    1
    12    72    63   am
    13    58    59    1
    14    58    60    1
    15    63    62    1
    16    63    64    2
    17    74    81   am
    18    74    75    2
    19    62    61    1
    20    62    65    1
    21    98    97    1
    22    81    82    1
    23    67    69   ar
    24    67    66   ar
    25    69    71   ar
    26    84    83    2
    27    99    97    1
    28    97    96    1
    29    65    66    1
    30    66    68   ar
    31    83    82    1
    32    83    92   am
    33    71    70   ar
    34    82    85    1
    35   137   136    2
    36    85    86    1
    37   142   143    1
    38    96    93    1
    39    68    70   ar
    40    92    93    1
    41    93    94    1
    42   143   144    1
    43   143   146    1
    44   149   150    2
    45   149   148    1
    46   147   144   am
    47   147   148    1
    48   136   135    1
    49    40    41    1
    50   144   145    2
    51    88    86   ar
    52    88    90   ar
    53   148   151    1
    54    86    87   ar
    55    43    42    2
    56   138   135    1
    57   138   139    1
    58   135   134    1
    59    94    95    2
    60   140   139    1
    61    44    41    1
    62    41    42    1
    63    90    91   ar
    64   139   141    1
    65   129   128    2
    66    87    89   ar
    67   153   152   ar
    68   151   152    1
    69   152   154   ar
    70    91    89   ar
    71   128   127    1
    72    52    53    1
    73    52    51    1
    74    45    46    1
    75    51    50    1
    76    50    49    1
    77   132   131    2
    78    48    47    2
    79    49    46    1
    80   130   131    1
    81   130   127    1
    82   131   133   am
    83   127   126    1
    84    46    47    1
    85   101   100    1
    86   101   102    1
    87   101   104    1
    88     8     6    1
    89   102   103    2
    90   126   119   am
    91    38    37    1
    92   104   105    1
    93   120   119    2
    94   119   118    1
    95     6     5    1
    96    39    37    1
    97    37    34    1
    98   105   106   ar
    99   105   107   ar
   100   117   118    1
   101   116   115    1
   102   118   121    1
   103    34    35    1
   104    34    33    1
   105     7     5    1
   106    35    36    2
   107     5     2    1
   108   115   114    1
   109    31    30    1
   110    30    32    1
   111    30    27    1
   112   121   122    1
   113   110   109    1
   114   110   111    2
   115     2     1    1
   116     2     3    1
   117   108   109    1
   118    26    27    1
   119    26    24   am
   120   112   109    1
   121   112   113    1
   122   114   113    1
   123    23    24    1
   124    23    22    1
   125    27    28    1
   126    28    29    2
   127   124   123    2
   128   122   123    1
   129    24    25    2
   130     3     9   am
   131     3     4    2
   132   123   125   am
   133    22    15   am
   134     9    10    1
   135    12    11    2
   136    15    16    2
   137    15    14    1
   138    10    11    1
   139    11    13   am
   140    13    14    1
   141    14    17    1
   142    17    18    1
   143    21    19   ar
   144    18    19    1
   145    19    20   ar
