@<TRIPOS>MOLECULE
tmp/1pxkA00.pdb
 166 159 0 0 0
SMALL
GASTEIGER

@<TRIPOS>ATOM
      1  N         13.8430   55.9560   28.9090 N.3     8  GLU8       -0.1245
      2  CA        13.4110   55.1360   30.0330 C.3     8  GLU8        0.1567
      3  C         14.0540   53.7680   29.9100 C.2     8  GLU8        0.2260
      4  O         14.7730   53.5010   28.9470 O.2     8  GLU8       -0.2867
      5  CB        11.8920   54.9830   30.0460 C.3     8  GLU8        0.0388
      6  CG        11.3410   54.2070   28.8730 C.3     8  GLU8        0.1160
      7  CD         9.8680   53.8940   29.0320 C.2     8  GLU8        0.3649
      8  OE1        9.0920   54.8340   29.3000 O.co2   8  GLU8       -0.2457
      9  OE2        9.4820   52.7130   28.8840 O.co2   8  GLU8       -0.2457
     10  N         13.4480   50.0130   29.2640 N.3    10  ILE10      -0.1231
     11  CA        12.5210   49.0160   28.7470 C.3    10  ILE10       0.1692
     12  C         12.6010   47.7130   29.5410 C.2    10  ILE10       0.2593
     13  O         11.6860   46.8910   29.4950 O.2    10  ILE10      -0.2718
     14  CB        12.8140   48.7070   27.2580 C.3    10  ILE10       0.0266
     15  CG1       12.6370   49.9720   26.4120 C.3    10  ILE10       0.0019
     16  CG2       11.9210   47.5830   26.7710 C.3    10  ILE10       0.0020
     17  CD1       11.2930   50.6480   26.5770 C.3    10  ILE10       0.0001
     18  N         13.6990   47.5240   30.2660 N.am   11  GLY11      -0.1942
     19  CA        13.8650   46.3130   31.0530 C.3    11  GLY11       0.2014
     20  C         15.3060   45.8450   31.1560 C.2    11  GLY11       0.2639
     21  O         16.2180   46.4970   30.6530 O.2    11  GLY11      -0.2714
     22  N         15.5100   44.7050   31.8080 N.am   12  GLU12      -0.1963
     23  CA        16.8470   44.1490   31.9840 C.3    12  GLU12       0.1733
     24  C         16.9720   42.7230   31.4480 C.2    12  GLU12       0.2616
     25  O         16.2460   41.8230   31.8680 O.2    12  GLU12      -0.2715
     26  CB        17.2310   44.1950   33.4680 C.3    12  GLU12       0.0429
     27  CG        16.0890   43.8450   34.4160 C.3    12  GLU12       0.1163
     28  CD        16.4470   44.0500   35.8810 C.2    12  GLU12       0.3649
     29  OE1       16.9230   45.1510   36.2340 O.co2  12  GLU12      -0.2457
     30  OE2       16.2420   43.1140   36.6820 O.co2  12  GLU12      -0.2457
     31  N         17.8980   42.5340   30.5120 N.am   13  GLY13      -0.1955
     32  CA        18.1190   41.2250   29.9270 C.3    13  GLY13       0.1869
     33  C         19.0560   40.3740   30.7660 C.2    13  GLY13       0.2309
     34  O         19.4760   40.7790   31.8510 O.2    13  GLY13      -0.2863
     35  N         18.0680   46.9170   28.8970 N.3    18  VAL18      -0.1245
     36  CA        17.5260   47.5230   27.6860 C.3    18  VAL18       0.1561
     37  C         16.9120   48.8900   27.9860 C.2    18  VAL18       0.2260
     38  O         16.1510   49.0560   28.9380 O.2    18  VAL18      -0.2867
     39  CB        16.4520   46.6320   27.0380 C.3    18  VAL18       0.0252
     40  CG1       16.1210   47.1520   25.6550 C.3    18  VAL18       0.0019
     41  CG2       16.9410   45.2080   26.9500 C.3    18  VAL18       0.0019
     42  N         15.6750   50.7060   20.4390 N.3    31  ALA31      -0.1245
     43  CA        15.9050   49.9400   21.6540 C.3    31  ALA31       0.1562
     44  C         17.4130   49.8120   21.7200 C.2    31  ALA31       0.2260
     45  O         18.0600   49.3820   20.7630 O.2    31  ALA31      -0.2867
     46  CB        15.2450   48.5680   21.5670 C.3    31  ALA31       0.0290
     47  N         20.6470   48.2530   23.8310 N.3    33  LYS33      -0.1245
     48  CA        21.0630   47.2950   24.8510 C.3    33  LYS33       0.1561
     49  C         22.5730   47.2940   25.0310 C.2    33  LYS33       0.2260
     50  O         23.3500   47.1110   24.0960 O.2    33  LYS33      -0.2867
     51  CB        20.5770   45.8860   24.4990 C.3    33  LYS33       0.0271
     52  CG        21.1980   44.7900   25.3540 C.3    33  LYS33       0.0035
     53  CD        21.3060   43.4860   24.5820 C.3    33  LYS33       0.0206
     54  CE        19.9530   42.8040   24.4500 C.3    33  LYS33       0.1093
     55  NZ        19.3940   42.4420   25.7800 N.3    33  LYS33      -0.1314
     56  N         12.9370   40.9770   15.1070 N.3    56  VAL56      -0.1245
     57  CA        13.2340   42.3330   15.5670 C.3    56  VAL56       0.1561
     58  C         14.5970   42.7680   15.0710 C.2    56  VAL56       0.2260
     59  O         15.6170   42.2540   15.5260 O.2    56  VAL56      -0.2867
     60  CB        13.2170   42.4220   17.1020 C.3    56  VAL56       0.0252
     61  CG1       13.9180   43.6920   17.5670 C.3    56  VAL56       0.0019
     62  CG2       11.7770   42.4230   17.5880 C.3    56  VAL56       0.0019
     63  N         18.5220   48.2760   18.5010 N.3    72  PHE72      -0.1227
     64  CA        17.4010   47.5820   17.8700 C.3    72  PHE72       0.1736
     65  C         16.2290   48.5220   17.5710 C.2    72  PHE72       0.2595
     66  O         16.1200   49.6130   18.1360 O.2    72  PHE72      -0.2718
     67  CB        16.8810   46.4720   18.7890 C.3    72  PHE72       0.0547
     68  CG        17.8530   45.3560   19.0220 C.ar   72  PHE72      -0.0202
     69  CD1       18.0930   44.4060   18.0370 C.ar   72  PHE72      -0.0042
     70  CD2       18.5090   45.2320   20.2430 C.ar   72  PHE72      -0.0042
     71  CE1       18.9680   43.3450   18.2640 C.ar   72  PHE72      -0.0003
     72  CE2       19.3890   44.1740   20.4790 C.ar   72  PHE72      -0.0003
     73  CZ        19.6160   43.2280   19.4840 C.ar   72  PHE72      -0.0000
     74  N         15.3540   48.0860   16.6720 N.am   73  GLU73      -0.1965
     75  CA        14.1640   48.8540   16.3650 C.3    73  GLU73       0.1733
     76  C         13.3630   48.7490   17.6520 C.2    73  GLU73       0.2616
     77  O         13.6040   47.8590   18.4620 O.2    73  GLU73      -0.2715
     78  CB        13.3840   48.2340   15.1990 C.3    73  GLU73       0.0429
     79  CG        12.7830   46.8780   15.4740 C.3    73  GLU73       0.1163
     80  CD        11.8390   46.4260   14.3740 C.2    73  GLU73       0.3649
     81  OE1       10.8250   47.1130   14.1420 O.co2  73  GLU73      -0.2457
     82  OE2       12.1050   45.3820   13.7390 O.co2  73  GLU73      -0.2457
     83  N         12.4120   49.6480   17.8440 N.am   74  PHE74      -0.1960
     84  CA        11.6090   49.6510   19.0630 C.3    74  PHE74       0.1771
     85  C         10.1670   49.1960   18.8200 C.2    74  PHE74       0.2619
     86  O          9.6010   49.4540   17.7530 O.2    74  PHE74      -0.2715
     87  CB        11.6320   51.0600   19.6440 C.3    74  PHE74       0.0574
     88  CG        10.7430   51.2540   20.8220 C.ar   74  PHE74      -0.0200
     89  CD1       11.1620   50.8780   22.0990 C.ar   74  PHE74      -0.0042
     90  CD2        9.5000   51.8560   20.6710 C.ar   74  PHE74      -0.0042
     91  CE1       10.3620   51.1010   23.2200 C.ar   74  PHE74      -0.0003
     92  CE2        8.6900   52.0840   21.7830 C.ar   74  PHE74      -0.0003
     93  CZ         9.1290   51.7030   23.0670 C.ar   74  PHE74      -0.0000
     94  N          9.6090   48.4690   19.7920 N.am   75  LEU75      -0.1963
     95  CA         8.2160   48.0010   19.7590 C.3    75  LEU75       0.1728
     96  C          7.7530   48.3420   21.1630 C.2    75  LEU75       0.2616
     97  O          8.5100   48.1730   22.1060 O.2    75  LEU75      -0.2715
     98  CB         8.1130   46.4930   19.4890 C.3    75  LEU75       0.0311
     99  CG         8.0570   46.0670   18.0070 C.3    75  LEU75       0.0022
    100  CD1        9.4490   45.7000   17.4970 C.3    75  LEU75       0.0001
    101  CD2        7.1060   44.8840   17.8410 C.3    75  LEU75       0.0001
    102  N          6.5290   48.8320   21.3170 N.am   76  HIS76      -0.1959
    103  CA         6.0740   49.2580   22.6370 C.3    76  HIS76       0.1787
    104  C          5.7300   48.2240   23.6770 C.2    76  HIS76       0.2620
    105  O          5.5660   48.5680   24.8390 O.2    76  HIS76      -0.2715
    106  CB         4.8860   50.2060   22.5050 C.3    76  HIS76       0.0785
    107  CG         5.2190   51.5100   21.8510 C.ar   76  HIS76       0.0821
    108  ND1        5.5200   51.6160   20.5090 N.ar   76  HIS76      -0.2267
    109  CD2        5.2860   52.7650   22.3530 C.ar   76  HIS76       0.1154
    110  CE1        5.7560   52.8830   20.2130 C.ar   76  HIS76       0.1986
    111  NE2        5.6200   53.6000   21.3140 N.ar   76  HIS76      -0.2212
    112  N          5.6220   46.9610   23.2990 N.am   77  GLN77      -0.1963
    113  CA         5.2550   45.9670   24.2920 C.3    77  GLN77       0.1733
    114  C          5.7520   44.5640   23.9890 C.2    77  GLN77       0.2616
    115  O          5.9810   44.2170   22.8290 O.2    77  GLN77      -0.2715
    116  CB         3.7320   45.9630   24.4220 C.3    77  GLN77       0.0408
    117  CG         3.1910   45.1420   25.5660 C.3    77  GLN77       0.0908
    118  CD         1.8010   45.5750   25.9760 C.2    77  GLN77       0.2608
    119  OE1        1.2130   45.0130   26.8990 O.2    77  GLN77      -0.2717
    120  NE2        1.2670   46.5840   25.2940 N.am   77  GLN77      -0.0878
    121  N          5.9380   43.7660   25.0410 N.am   78  ASP78      -0.1971
    122  CA         6.3530   42.3740   24.8780 C.3    78  ASP78       0.1709
    123  C          5.1620   41.4980   25.2700 C.2    78  ASP78       0.2293
    124  O          4.2140   41.9780   25.9040 O.2    78  ASP78      -0.2864
    125  CB         7.5780   42.0420   25.7390 C.3    78  ASP78       0.1436
    126  CG         7.3400   42.2790   27.2050 C.2    78  ASP78       0.3671
    127  OD1        6.3920   41.6920   27.7660 O.co2  78  ASP78      -0.2456
    128  OD2        8.1110   43.0540   27.8000 O.co2  78  ASP78      -0.2456
    129  N          9.0210   37.5160   27.2520 N.3   123  GLN123     -0.1231
    130  CA         9.7580   38.7640   27.4120 C.3   123  GLN123      0.1698
    131  C         10.6670   39.1370   26.2210 C.2   123  GLN123      0.2592
    132  O         11.0820   40.2870   26.1070 O.2   123  GLN123     -0.2718
    133  CB        10.6020   38.6970   28.6910 C.3   123  GLN123      0.0381
    134  CG         9.8670   38.1690   29.9320 C.3   123  GLN123      0.0905
    135  CD         9.7630   36.6390   29.9810 C.2   123  GLN123      0.2608
    136  OE1        9.1070   36.0160   29.1470 O.2   123  GLN123     -0.2717
    137  NE2       10.4130   36.0350   30.9690 N.am  123  GLN123     -0.0878
    138  N         10.9790   38.1690   25.3560 N.am  124  ASN124     -0.1974
    139  CA        11.8210   38.3880   24.1770 C.3   124  ASN124      0.1688
    140  C         10.9670   38.3820   22.9170 C.2   124  ASN124      0.2292
    141  O         11.4860   38.3380   21.8080 O.2   124  ASN124     -0.2864
    142  CB        12.8700   37.2870   24.0340 C.3   124  ASN124      0.1181
    143  CG        13.7490   37.1580   25.2480 C.2   124  ASN124      0.2629
    144  OD1       14.6570   36.3270   25.2830 O.2   124  ASN124     -0.2716
    145  ND2       13.4880   37.9780   26.2580 N.am  124  ASN124     -0.0877
    146  N          8.1020   40.5350   20.9480 N.3   126  LEU126     -0.1245
    147  CA         7.4930   41.8620   20.9350 C.3   126  LEU126      0.1561
    148  C          6.3660   42.0410   19.9280 C.2   126  LEU126      0.2260
    149  O          6.3950   41.4830   18.8240 O.2   126  LEU126     -0.2867
    150  CB         8.5840   42.9000   20.6980 C.3   126  LEU126      0.0270
    151  CG         9.8800   42.5340   21.4390 C.3   126  LEU126      0.0019
    152  CD1       11.0280   43.1970   20.7290 C.3   126  LEU126      0.0001
    153  CD2        9.8240   42.9190   22.9200 C.3   126  LEU126      0.0001
    154  N         13.0760   38.7990   19.5450 N.3   136  ALA136     -0.1231
    155  CA        14.1770   39.6770   19.9140 C.3   136  ALA136      0.1694
    156  C         15.2830   38.9300   20.6480 C.2   136  ALA136      0.2592
    157  O         15.0190   37.9580   21.3490 O.2   136  ALA136     -0.2718
    158  CB        13.6580   40.8060   20.7760 C.3   136  ALA136      0.0304
    159  N         16.5160   39.4090   20.4870 N.am  137  ASP137     -0.1974
    160  CA        17.7030   38.8150   21.1100 C.3   137  ASP137      0.1709
    161  C         18.0550   37.4820   20.4830 C.2   137  ASP137      0.2293
    162  O         18.7590   36.6680   21.0810 O.2   137  ASP137     -0.2864
    163  CB        17.5030   38.6390   22.6130 C.3   137  ASP137      0.1436
    164  CG        17.3740   39.9600   23.3300 C.2   137  ASP137      0.3671
    165  OD1       16.4770   40.7480   22.9660 O.co2 137  ASP137     -0.2456
    166  OD2       18.1710   40.2130   24.2530 O.co2 137  ASP137     -0.2456
@<TRIPOS>BOND
     1    82    80   ar
     2    81    80   ar
     3    80    79    1
     4    58    59    2
     5    58    57    1
     6    56    57    1
     7    78    79    1
     8    78    75    1
     9    57    60    1
    10    75    74    1
    11    75    76    1
    12    74    65   am
    13    60    61    1
    14    60    62    1
    15   100    99    1
    16    65    64    1
    17    65    66    2
    18    76    83   am
    19    76    77    2
    20    86    85    2
    21   101    99    1
    22    83    84    1
    23    64    63    1
    24    64    67    1
    25    99    98    1
    26    69    71   ar
    27    69    68   ar
    28    71    73   ar
    29    67    68    1
    30    85    84    1
    31    85    94   am
    32   149   148    2
    33    68    70   ar
    34    84    87    1
    35    73    72   ar
    36    98    95    1
    37   154   155    1
    38    87    88    1
    39    95    94    1
    40    95    96    1
    41   155   156    1
    42   155   158    1
    43   148   147    1
    44   110   108   ar
    45   110   111   ar
    46    70    72   ar
    47    42    43    1
    48   161   162    2
    49   161   160    1
    50   159   156   am
    51   159   160    1
    52   108   107   ar
    53   156   157    2
    54    90    88   ar
    55    90    92   ar
    56   150   147    1
    57   150   151    1
    58   152   151    1
    59    45    44    2
    60    88    89   ar
    61   147   146    1
    62   160   163    1
    63    96   102   am
    64    96    97    2
    65   111   109   ar
    66   102   103    1
    67   151   153    1
    68    46    43    1
    69    43    44    1
    70    92    93   ar
    71   141   140    2
    72   107   109   ar
    73   107   106    1
    74    89    91   ar
    75   106   103    1
    76   163   164    1
    77   103   104    1
    78   115   114    2
    79   140   139    1
    80   165   164   ar
    81    93    91   ar
    82   112   104   am
    83   112   113    1
    84   164   166   ar
    85   104   105    2
    86    47    48    1
    87   114   113    1
    88   114   121   am
    89   142   139    1
    90   142   143    1
    91    50    49    2
    92   139   138    1
    93   113   116    1
    94   116   117    1
    95    54    53    1
    96    54    55    1
    97    51    48    1
    98    51    52    1
    99    53    52    1
   100    48    49    1
   101   122   121    1
   102   122   123    1
   103   122   125    1
   104   143   144    2
   105   143   145   am
   106   123   124    2
   107   120   118   am
   108   138   131   am
   109   117   118    1
   110    40    39    1
   111   125   126    1
   112   118   119    2
   113   132   131    2
   114   131   130    1
   115    15    17    1
   116    15    14    1
   117    16    14    1
   118    41    39    1
   119    39    36    1
   120   126   127   ar
   121   126   128   ar
   122   129   130    1
   123    14    11    1
   124   130   133    1
   125    36    37    1
   126    36    35    1
   127    37    38    2
   128   133   134    1
   129    11    10    1
   130    11    12    1
   131     6     7    1
   132     6     5    1
   133     9     7   ar
   134     1     2    1
   135     4     3    2
   136     7     8   ar
   137   136   135    2
   138    13    12    2
   139    12    18   am
   140     3     2    1
   141    32    31    1
   142    32    33    1
   143   134   135    1
   144   135   137   am
   145     2     5    1
   146    18    19    1
   147    31    24   am
   148    21    20    2
   149    33    34    2
   150    19    20    1
   151    20    22   am
   152    24    25    2
   153    24    23    1
   154    22    23    1
   155    23    26    1
   156    26    27    1
   157    27    28    1
   158    28    29   ar
   159    28    30   ar
