@<TRIPOS>MOLECULE
tmp/1pxmA00.pdb
 166 159 0 0 0
SMALL
GASTEIGER

@<TRIPOS>ATOM
      1  N         12.9610   48.8760    6.6050 N.3    10  ILE10      -0.1231
      2  CA        13.8720   47.8540    7.0980 C.3    10  ILE10       0.1692
      3  C         13.8300   46.5740    6.2740 C.2    10  ILE10       0.2593
      4  O         14.8660   46.0660    5.8550 O.2    10  ILE10      -0.2718
      5  CB        13.5540   47.4940    8.5650 C.3    10  ILE10       0.0266
      6  CG1       14.1160   48.5640    9.5000 C.3    10  ILE10       0.0019
      7  CG2       14.1000   46.1200    8.8930 C.3    10  ILE10       0.0020
      8  CD1       13.8820   48.2790   10.9670 C.3    10  ILE10       0.0001
      9  N         12.6300   46.0470    6.0610 N.am   11  GLY11      -0.1942
     10  CA        12.5000   44.8230    5.2970 C.3    11  GLY11       0.2014
     11  C         11.0630   44.5000    4.9420 C.2    11  GLY11       0.2639
     12  O         10.1680   45.3260    5.1320 O.2    11  GLY11      -0.2714
     13  N         10.8490   43.2960    4.4190 N.am   12  GLU12      -0.1963
     14  CA         9.5200   42.8490    4.0270 C.3    12  GLU12       0.1733
     15  C          9.1530   41.5570    4.7430 C.2    12  GLU12       0.2616
     16  O          9.3890   40.4640    4.2290 O.2    12  GLU12      -0.2715
     17  CB         9.4530   42.6390    2.5090 C.3    12  GLU12       0.0429
     18  CG         9.7350   43.9020    1.6960 C.3    12  GLU12       0.1163
     19  CD         9.4780   43.7280    0.2050 C.2    12  GLU12       0.3649
     20  OE1        9.7200   44.6900   -0.5580 O.co2  12  GLU12      -0.2457
     21  OE2        9.0350   42.6310   -0.2020 O.co2  12  GLU12      -0.2457
     22  N          8.5790   41.6930    5.9340 N.am   13  GLY13      -0.1955
     23  CA         8.1810   40.5290    6.7040 C.3    13  GLY13       0.1869
     24  C          7.2070   39.6600    5.9350 C.2    13  GLY13       0.2309
     25  O          6.7640   40.0250    4.8440 O.2    13  GLY13      -0.2863
     26  N          8.2590   46.2070    7.3910 N.3    18  VAL18      -0.1245
     27  CA         8.9070   46.8380    8.5370 C.3    18  VAL18       0.1561
     28  C          9.5990   48.1540    8.2070 C.2    18  VAL18       0.2260
     29  O         10.2270   48.3000    7.1610 O.2    18  VAL18      -0.2867
     30  CB         9.9470   45.9080    9.1580 C.3    18  VAL18       0.0252
     31  CG1       10.3420   46.4470   10.5190 C.3    18  VAL18       0.0019
     32  CG2        9.4060   44.4760    9.2290 C.3    18  VAL18       0.0019
     33  N         11.4070   50.1140   15.5660 N.3    31  ALA31      -0.1245
     34  CA        11.1420   49.3320   14.3700 C.3    31  ALA31       0.1562
     35  C          9.6260   49.1380   14.3620 C.2    31  ALA31       0.2260
     36  O          9.0570   48.4660   15.2270 O.2    31  ALA31      -0.2867
     37  CB        11.8420   48.0120   14.4360 C.3    31  ALA31       0.0290
     38  N          6.1920   47.7370   12.5300 N.3    33  LYS33      -0.1245
     39  CA         5.6750   46.6960   11.6550 C.3    33  LYS33       0.1561
     40  C          4.1710   46.8790   11.4730 C.2    33  LYS33       0.2260
     41  O          3.4070   46.9040   12.4450 O.2    33  LYS33      -0.2867
     42  CB         5.9520   45.2990   12.2300 C.3    33  LYS33       0.0271
     43  CG         5.5410   44.1810   11.2770 C.3    33  LYS33       0.0035
     44  CD         5.7740   42.7880   11.8450 C.3    33  LYS33       0.0206
     45  CE         5.5000   41.7250   10.7710 C.3    33  LYS33       0.1093
     46  NZ         5.3430   40.3370   11.3040 N.3    33  LYS33      -0.1314
     47  N         13.9950   40.4390   20.9070 N.3    56  VAL56      -0.1245
     48  CA        13.7430   41.8160   20.5250 C.3    56  VAL56       0.1561
     49  C         12.4300   42.2140   21.2020 C.2    56  VAL56       0.2260
     50  O         11.3630   41.7000   20.8680 O.2    56  VAL56      -0.2867
     51  CB        13.5930   41.9240   19.0050 C.3    56  VAL56       0.0252
     52  CG1       13.0850   43.3110   18.6120 C.3    56  VAL56       0.0019
     53  CG2       14.9180   41.6480   18.3580 C.3    56  VAL56       0.0019
     54  N          8.5900   47.6790   17.9380 N.3    72  PHE72      -0.1227
     55  CA         9.6970   46.9200   18.5120 C.3    72  PHE72       0.1736
     56  C         10.8990   47.7990   18.8510 C.2    72  PHE72       0.2595
     57  O         11.1220   48.8330   18.2130 O.2    72  PHE72      -0.2718
     58  CB        10.1600   45.8480   17.5270 C.3    72  PHE72       0.0547
     59  CG         9.2090   44.6940   17.3720 C.ar   72  PHE72      -0.0202
     60  CD1        9.1140   43.7110   18.3550 C.ar   72  PHE72      -0.0042
     61  CD2        8.4430   44.5610   16.2140 C.ar   72  PHE72      -0.0042
     62  CE1        8.2760   42.6070   18.1840 C.ar   72  PHE72      -0.0003
     63  CE2        7.6030   43.4680   16.0300 C.ar   72  PHE72      -0.0003
     64  CZ         7.5170   42.4860   17.0150 C.ar   72  PHE72      -0.0000
     65  N         11.6730   47.3830   19.8560 N.am   73  GLU73      -0.1965
     66  CA        12.8770   48.1170   20.2290 C.3    73  GLU73       0.1733
     67  C         13.7420   48.0280   18.9850 C.2    73  GLU73       0.2616
     68  O         13.8240   46.9750   18.3600 O.2    73  GLU73      -0.2715
     69  CB        13.5960   47.4510   21.4140 C.3    73  GLU73       0.0429
     70  CG        14.0750   46.0230   21.1410 C.3    73  GLU73       0.1163
     71  CD        15.0570   45.5160   22.1870 C.2    73  GLU73       0.3649
     72  OE1       16.1510   46.1050   22.3020 O.co2  73  GLU73      -0.2457
     73  OE2       14.7420   44.5290   22.8920 O.co2  73  GLU73      -0.2457
     74  N         14.3790   49.1260   18.6150 N.am   74  PHE74      -0.1960
     75  CA        15.2010   49.1310   17.4170 C.3    74  PHE74       0.1771
     76  C         16.6370   48.6630   17.6420 C.2    74  PHE74       0.2619
     77  O         17.2640   49.0090   18.6290 O.2    74  PHE74      -0.2715
     78  CB        15.2070   50.5350   16.8060 C.3    74  PHE74       0.0574
     79  CG        15.9740   50.6270   15.5200 C.ar   74  PHE74      -0.0200
     80  CD1       15.3990   50.2000   14.3240 C.ar   74  PHE74      -0.0042
     81  CD2       17.2870   51.0880   15.5090 C.ar   74  PHE74      -0.0042
     82  CE1       16.1050   50.2230   13.1230 C.ar   74  PHE74      -0.0003
     83  CE2       18.0170   51.1170   14.3110 C.ar   74  PHE74      -0.0003
     84  CZ        17.4090   50.6760   13.1060 C.ar   74  PHE74      -0.0000
     85  N         17.1370   47.8390   16.7270 N.am   75  LEU75      -0.1963
     86  CA        18.5110   47.3550   16.7980 C.3    75  LEU75       0.1728
     87  C         19.1620   47.7700   15.4930 C.2    75  LEU75       0.2616
     88  O         18.4730   47.9510   14.4840 O.2    75  LEU75      -0.2715
     89  CB        18.5690   45.8370   17.0000 C.3    75  LEU75       0.0311
     90  CG        18.6530   45.4450   18.4830 C.3    75  LEU75       0.0022
     91  CD1       17.3060   45.6550   19.1360 C.3    75  LEU75       0.0001
     92  CD2       19.0810   44.0060   18.6330 C.3    75  LEU75       0.0001
     93  N         20.4810   47.9170   15.4920 N.am   76  HIS76      -0.1959
     94  CA        21.1260   48.4050   14.2860 C.3    76  HIS76       0.1787
     95  C         21.4470   47.5220   13.1200 C.2    76  HIS76       0.2620
     96  O         21.7590   48.0380   12.0500 O.2    76  HIS76      -0.2715
     97  CB        22.3610   49.2280   14.6400 C.3    76  HIS76       0.0785
     98  CG        22.0650   50.6850   14.8230 C.ar   76  HIS76       0.0821
     99  ND1       21.5380   51.1960   15.9910 N.ar   76  HIS76      -0.2267
    100  CD2       22.1620   51.7280   13.9650 C.ar   76  HIS76       0.1154
    101  CE1       21.3240   52.4930   15.8420 C.ar   76  HIS76       0.1986
    102  NE2       21.6930   52.8410   14.6230 N.ar   76  HIS76      -0.2212
    103  N         21.3860   46.2090   13.2780 N.am   77  GLN77      -0.1963
    104  CA        21.6540   45.3710   12.1190 C.3    77  GLN77       0.1733
    105  C         21.0710   43.9700   12.1880 C.2    77  GLN77       0.2616
    106  O         20.8880   43.4200   13.2680 O.2    77  GLN77      -0.2715
    107  CB        23.1600   45.2890   11.8580 C.3    77  GLN77       0.0408
    108  CG        23.4630   44.8750   10.4310 C.3    77  GLN77       0.0908
    109  CD        24.8890   45.1550   10.0340 C.2    77  GLN77       0.2608
    110  OE1       25.8090   44.4390   10.4280 O.2    77  GLN77      -0.2717
    111  NE2       25.0860   46.2110    9.2550 N.am   77  GLN77      -0.0878
    112  N         20.7700   43.4070   11.0200 N.am   78  ASP78      -0.1971
    113  CA        20.2460   42.0470   10.9370 C.3    78  ASP78       0.1709
    114  C         21.4430   41.1470   10.6420 C.2    78  ASP78       0.2293
    115  O         22.4380   41.6020   10.0780 O.2    78  ASP78      -0.2864
    116  CB        19.1940   41.9190    9.8210 C.3    78  ASP78       0.1436
    117  CG        19.7970   41.9580    8.4310 C.2    78  ASP78       0.3671
    118  OD1       20.8270   41.2820    8.2170 O.co2  78  ASP78      -0.2456
    119  OD2       19.2380   42.6440    7.5430 O.co2  78  ASP78      -0.2456
    120  N         22.7630   40.9540    6.6560 N.3    81  LYS81      -0.1245
    121  CA        23.5930   42.1000    6.3080 C.3    81  LYS81       0.1561
    122  C         25.0070   41.9420    6.8640 C.2    81  LYS81       0.2260
    123  O         25.9930   42.1040    6.1470 O.2    81  LYS81      -0.2867
    124  CB        22.9510   43.3740    6.8600 C.3    81  LYS81       0.0271
    125  CG        23.8000   44.6310    6.7440 C.3    81  LYS81       0.0035
    126  CD        24.0080   45.0420    5.2910 C.3    81  LYS81       0.0206
    127  CE        24.6930   46.4050    5.1860 C.3    81  LYS81       0.1093
    128  NZ        23.8880   47.5090    5.7930 N.3    81  LYS81      -0.1314
    129  N         17.7670   37.2980    8.5440 N.3   123  GLN123     -0.1231
    130  CA        17.0530   38.5710    8.5380 C.3   123  GLN123      0.1698
    131  C         16.2660   38.9090    9.8020 C.2   123  GLN123      0.2592
    132  O         16.0290   40.0810   10.0620 O.2   123  GLN123     -0.2718
    133  CB        16.1340   38.6840    7.3200 C.3   123  GLN123      0.0381
    134  CG        16.8340   38.4730    5.9900 C.3   123  GLN123      0.0905
    135  CD        16.9420   36.9990    5.6150 C.2   123  GLN123      0.2608
    136  OE1       17.5770   36.2030    6.3130 O.2   123  GLN123     -0.2717
    137  NE2       16.3150   36.6300    4.5080 N.am  123  GLN123     -0.0878
    138  N         15.8410   37.9220   10.5870 N.am  124  ASN124     -0.1974
    139  CA        15.1310   38.2730   11.8190 C.3   124  ASN124      0.1688
    140  C         15.9260   38.0210   13.0920 C.2   124  ASN124      0.2292
    141  O         15.3540   37.7930   14.1650 O.2   124  ASN124     -0.2864
    142  CB        13.7410   37.6170   11.9240 C.3   124  ASN124      0.1181
    143  CG        13.7060   36.2150   11.3990 C.2   124  ASN124      0.2629
    144  OD1       14.3390   35.3180   11.9420 O.2   124  ASN124     -0.2716
    145  ND2       12.9460   36.0140   10.3300 N.am  124  ASN124     -0.0877
    146  N         18.8120   40.0370   15.1170 N.3   126  LEU126     -0.1245
    147  CA        19.3990   41.3690   15.1410 C.3   126  LEU126      0.1561
    148  C         20.5410   41.5140   16.1100 C.2   126  LEU126      0.2260
    149  O         20.5220   40.9590   17.2090 O.2   126  LEU126     -0.2867
    150  CB        18.3110   42.3840   15.4630 C.3   126  LEU126      0.0270
    151  CG        17.1160   42.1450   14.5390 C.3   126  LEU126      0.0019
    152  CD1       15.8490   42.4360   15.2890 C.3   126  LEU126      0.0001
    153  CD2       17.2360   42.9830   13.2790 C.3   126  LEU126      0.0001
    154  N         13.7410   38.1890   16.5360 N.3   136  ALA136     -0.1231
    155  CA        12.6670   39.1250   16.2080 C.3   136  ALA136      0.1694
    156  C         11.5120   38.3860   15.5180 C.2   136  ALA136      0.2592
    157  O         11.7440   37.4490   14.7540 O.2   136  ALA136     -0.2718
    158  CB        13.1890   40.2220   15.3050 C.3   136  ALA136      0.0304
    159  N         10.2820   38.8320   15.7820 N.am  137  ASP137     -0.1974
    160  CA         9.0580   38.2430   15.2220 C.3   137  ASP137      0.1709
    161  C          8.7420   36.9010   15.8420 C.2   137  ASP137      0.2293
    162  O          8.3100   35.9860   15.1570 O.2   137  ASP137     -0.2864
    163  CB         9.1570   38.0630   13.7070 C.3   137  ASP137      0.1436
    164  CG         8.8610   39.3370   12.9500 C.2   137  ASP137      0.3671
    165  OD1        7.8350   39.9820   13.2560 O.co2 137  ASP137     -0.2456
    166  OD2        9.6440   39.6880   12.0410 O.co2 137  ASP137     -0.2456
@<TRIPOS>BOND
     1    20    19   ar
     2    21    19   ar
     3    19    18    1
     4    18    17    1
     5    17    14    1
     6    14    13    1
     7    14    15    1
     8    16    15    2
     9    13    11   am
    10   137   135   am
    11    15    22   am
    12    25    24    2
    13    11    12    2
    14    11    10    1
    15   127   126    1
    16   127   128    1
    17   126   125    1
    18    10     9    1
    19   135   134    1
    20   135   136    2
    21     4     3    2
    22    22    23    1
    23    24    23    1
    24   134   133    1
    25     9     3   am
    26   123   122    2
    27     3     2    1
    28   121   120    1
    29   121   124    1
    30   121   122    1
    31     1     2    1
    32   125   124    1
    33     2     5    1
    34    29    28    2
    35   133   130    1
    36    26    27    1
    37   119   117   ar
    38    28    27    1
    39   118   117   ar
    40   117   116    1
    41    27    30    1
    42   130   129    1
    43   130   131    1
    44     5     7    1
    45     5     6    1
    46    30    32    1
    47    30    31    1
    48   111   109   am
    49     6     8    1
    50   131   132    2
    51   131   138   am
    52   116   113    1
    53   109   110    2
    54   109   108    1
    55   115   114    2
    56   145   143   am
    57   108   107    1
    58   138   139    1
    59   114   113    1
    60    45    46    1
    61    45    44    1
    62   113   112    1
    63   112   105   am
    64    43    44    1
    65    43    42    1
    66   143   142    1
    67   143   144    2
    68    40    39    1
    69    40    41    2
    70    39    42    1
    71    39    38    1
    72   139   142    1
    73   139   140    1
    74   107   104    1
    75   166   164   ar
    76    96    95    2
    77   104   105    1
    78   104   103    1
    79   105   106    2
    80   164   165   ar
    81   164   163    1
    82   140   141    2
    83    84    82   ar
    84    84    83   ar
    85    95   103   am
    86    95    94    1
    87    82    80   ar
    88   153   151    1
    89   163   160    1
    90   100   102   ar
    91   100    98   ar
    92    94    97    1
    93    94    93    1
    94    83    81   ar
    95    80    79   ar
    96    35    34    1
    97    35    36    2
    98    34    37    1
    99    34    33    1
   100    88    87    2
   101   151   152    1
   102   151   150    1
   103   102   101   ar
   104    97    98    1
   105   157   156    2
   106    98    99   ar
   107   146   147    1
   108   147   150    1
   109   147   148    1
   110   162   161    2
   111   160   159    1
   112   160   161    1
   113   158   155    1
   114    93    87   am
   115    87    86    1
   116    81    79   ar
   117   156   159   am
   118   156   155    1
   119    79    78    1
   120   101    99   ar
   121    63    61   ar
   122    63    64   ar
   123   148   149    2
   124   155   154    1
   125    61    59   ar
   126    85    86    1
   127    85    76   am
   128    86    89    1
   129    78    75    1
   130    89    90    1
   131    64    62   ar
   132    59    58    1
   133    59    60   ar
   134    75    76    1
   135    75    74    1
   136    58    55    1
   137    76    77    2
   138    54    55    1
   139    62    60   ar
   140    57    56    2
   141    53    51    1
   142    68    67    2
   143    90    92    1
   144    90    91    1
   145    55    56    1
   146    52    51    1
   147    74    67   am
   148    56    65   am
   149    67    66    1
   150    51    48    1
   151    65    66    1
   152    66    69    1
   153    48    47    1
   154    48    49    1
   155    50    49    2
   156    70    69    1
   157    70    71    1
   158    71    72   ar
   159    71    73   ar
