@<TRIPOS>MOLECULE
tmp/1pxnA00.pdb
 162 155 0 0 0
SMALL
GASTEIGER

@<TRIPOS>ATOM
      1  N         -0.1650   12.3120   30.7390 N.3    10  ILE10      -0.1231
      2  CA         0.8140   11.6070   29.9320 C.3    10  ILE10       0.1692
      3  C          0.6730   11.8760   28.4360 C.2    10  ILE10       0.2593
      4  O          1.6270   11.7210   27.6710 O.2    10  ILE10      -0.2718
      5  CB         0.6900   10.0900   30.2390 C.3    10  ILE10       0.0266
      6  CG1        1.6430    9.7210   31.3790 C.3    10  ILE10       0.0019
      7  CG2        0.8720    9.2680   29.0010 C.3    10  ILE10       0.0020
      8  CD1        3.0700   10.1960   31.1810 C.3    10  ILE10       0.0001
      9  N         -0.5270   12.2790   28.0290 N.am   11  GLY11      -0.1942
     10  CA        -0.7810   12.5530   26.6300 C.3    11  GLY11       0.2014
     11  C         -2.0710   13.3150   26.3900 C.2    11  GLY11       0.2638
     12  O         -2.9190   13.4430   27.2730 O.2    11  GLY11      -0.2714
     13  N         -2.2000   13.8400   25.1780 N.am   12  GLU12      -0.1977
     14  CA        -3.3650   14.6010   24.7670 C.3    12  GLU12       0.1602
     15  C         -3.6100   14.1670   23.3440 C.2    12  GLU12       0.2287
     16  O         -2.6720   13.7790   22.6550 O.2    12  GLU12      -0.2864
     17  CB        -3.0750   16.1000   24.8020 C.3    12  GLU12       0.0415
     18  CG        -2.9830   16.7020   26.1980 C.3    12  GLU12       0.1163
     19  CD        -2.7090   18.1990   26.1700 C.2    12  GLU12       0.3649
     20  OE1       -1.5660   18.5880   25.8470 O.co2  12  GLU12      -0.2457
     21  OE2       -3.6370   18.9880   26.4610 O.co2  12  GLU12      -0.2457
     22  N         -4.6760   11.4550   28.2100 N.3    18  VAL18      -0.1245
     23  CA        -4.0620   10.2250   28.6870 C.3    18  VAL18       0.1561
     24  C         -3.3460   10.4940   29.9990 C.2    18  VAL18       0.2260
     25  O         -2.5900   11.4590   30.1340 O.2    18  VAL18      -0.2867
     26  CB        -3.0440    9.6790   27.6880 C.3    18  VAL18       0.0252
     27  CG1       -2.4170    8.4150   28.2440 C.3    18  VAL18       0.0019
     28  CG2       -3.7280    9.4030   26.3640 C.3    18  VAL18       0.0019
     29  N         -2.2150    3.1900   32.1650 N.3    31  ALA31      -0.1245
     30  CA        -2.3890    4.4040   31.4010 C.3    31  ALA31       0.1562
     31  C         -3.9000    4.4890   31.2330 C.2    31  ALA31       0.2260
     32  O         -4.5460    3.5070   30.8500 O.2    31  ALA31      -0.2867
     33  CB        -1.6740    4.2910   30.0530 C.3    31  ALA31       0.0290
     34  N         -7.2890    6.5980   29.6690 N.3    33  LYS33      -0.1245
     35  CA        -7.7210    7.5480   28.6510 C.3    33  LYS33       0.1561
     36  C         -9.2040    7.8730   28.7940 C.2    33  LYS33       0.2260
     37  O        -10.0620    7.0370   28.5400 O.2    33  LYS33      -0.2867
     38  CB        -7.4340    7.0010   27.2510 C.3    33  LYS33       0.0271
     39  CG        -7.7870    7.9590   26.1250 C.3    33  LYS33       0.0035
     40  CD        -7.4780    7.3530   24.7670 C.3    33  LYS33       0.0206
     41  CE        -7.8320    8.3120   23.6410 C.3    33  LYS33       0.1093
     42  NZ        -7.5350    7.7310   22.3030 N.3    33  LYS33      -0.1314
     43  N          0.1870   -2.5460   22.6640 N.3    60  VAL60      -0.1245
     44  CA        -0.1560   -2.1860   24.0260 C.3    60  VAL60       0.1561
     45  C         -1.4760   -2.8800   24.3490 C.2    60  VAL60       0.2260
     46  O         -2.5020   -2.6300   23.7050 O.2    60  VAL60      -0.2867
     47  CB        -0.3490   -0.6630   24.1650 C.3    60  VAL60       0.0252
     48  CG1       -0.8780   -0.3320   25.5620 C.3    60  VAL60       0.0019
     49  CG2        0.9630    0.0490   23.9060 C.3    60  VAL60       0.0019
     50  N         -4.8480    0.7110   29.8230 N.3    76  PHE76      -0.1227
     51  CA        -3.8170    0.0740   29.0130 C.3    76  PHE76       0.1736
     52  C         -2.6180   -0.3180   29.8490 C.2    76  PHE76       0.2595
     53  O         -2.3800    0.2770   30.9040 O.2    76  PHE76      -0.2718
     54  CB        -3.3150    1.0480   27.9490 C.3    76  PHE76       0.0547
     55  CG        -4.3280    1.4090   26.9070 C.ar   76  PHE76      -0.0202
     56  CD1       -4.4710    0.6260   25.7600 C.ar   76  PHE76      -0.0042
     57  CD2       -5.0920    2.5630   27.0360 C.ar   76  PHE76      -0.0042
     58  CE1       -5.3560    0.9900   24.7500 C.ar   76  PHE76      -0.0003
     59  CE2       -5.9790    2.9370   26.0360 C.ar   76  PHE76      -0.0003
     60  CZ        -6.1120    2.1510   24.8880 C.ar   76  PHE76      -0.0000
     61  N         -1.8670   -1.3160   29.3800 N.am   77  GLU77      -0.1965
     62  CA        -0.6470   -1.7130   30.0680 C.3    77  GLU77       0.1733
     63  C          0.2340   -0.4740   29.9150 C.2    77  GLU77       0.2616
     64  O          0.2080    0.1850   28.8770 O.2    77  GLU77      -0.2715
     65  CB         0.0120   -2.9330   29.3960 C.3    77  GLU77       0.0429
     66  CG         0.5330   -2.7220   27.9840 C.3    77  GLU77       0.1163
     67  CD         1.4560   -3.8460   27.5150 C.2    77  GLU77       0.3649
     68  OE1        2.5110   -4.0660   28.1240 O.co2  77  GLU77      -0.2457
     69  OE2        1.1440   -4.5200   26.5300 O.co2  77  GLU77      -0.2457
     70  N          0.9930   -0.1410   30.9460 N.am   78  PHE78      -0.1960
     71  CA         1.8520    1.0420   30.9360 C.3    78  PHE78       0.1771
     72  C          3.2550    0.8000   30.4010 C.2    78  PHE78       0.2619
     73  O          3.8660   -0.2220   30.7050 O.2    78  PHE78      -0.2715
     74  CB         1.9820    1.5660   32.3550 C.3    78  PHE78       0.0574
     75  CG         2.7780    2.8420   32.4770 C.ar   78  PHE78      -0.0200
     76  CD1        2.2280    4.0680   32.0790 C.ar   78  PHE78      -0.0042
     77  CD2        4.0320    2.8390   33.0750 C.ar   78  PHE78      -0.0042
     78  CE1        2.9160    5.2700   32.2880 C.ar   78  PHE78      -0.0003
     79  CE2        4.7160    4.0330   33.2880 C.ar   78  PHE78      -0.0003
     80  CZ         4.1500    5.2540   32.8930 C.ar   78  PHE78      -0.0000
     81  N          3.7520    1.7380   29.5950 N.am   79  LEU79      -0.1963
     82  CA         5.1180    1.6800   29.0850 C.3    79  LEU79       0.1728
     83  C          5.7970    2.9790   29.5160 C.2    79  LEU79       0.2616
     84  O          5.1310    3.9910   29.7240 O.2    79  LEU79      -0.2715
     85  CB         5.1430    1.5070   27.5840 C.3    79  LEU79       0.0311
     86  CG         5.0230    0.0090   27.3220 C.3    79  LEU79       0.0022
     87  CD1        3.5650   -0.3830   27.3630 C.3    79  LEU79       0.0001
     88  CD2        5.6470   -0.3470   25.9930 C.3    79  LEU79       0.0001
     89  N          7.1200    2.9780   29.6370 N.am   80  HIS80      -0.1959
     90  CA         7.7720    4.1730   30.1690 C.3    80  HIS80       0.1787
     91  C          8.1100    5.3980   29.3510 C.2    80  HIS80       0.2620
     92  O          8.5300    6.4020   29.9170 O.2    80  HIS80      -0.2715
     93  CB         9.0080    3.7690   30.9660 C.3    80  HIS80       0.0785
     94  CG         8.9080    4.1160   32.4210 C.ar   80  HIS80       0.0821
     95  ND1        8.6480    3.1750   33.3970 N.ar   80  HIS80      -0.2267
     96  CD2        9.0090    5.3050   33.0630 C.ar   80  HIS80       0.1154
     97  CE1        8.6010    3.7680   34.5760 C.ar   80  HIS80       0.1986
     98  NE2        8.8170    5.0610   34.4020 N.ar   80  HIS80      -0.2212
     99  N          7.9300    5.3470   28.0410 N.am   81  GLN81      -0.1963
    100  CA         8.2430    6.5100   27.2370 C.3    81  GLN81       0.1733
    101  C          7.6390    6.3670   25.8610 C.2    81  GLN81       0.2616
    102  O          7.5460    5.2550   25.3280 O.2    81  GLN81      -0.2715
    103  CB         9.7580    6.6700   27.1300 C.3    81  GLN81       0.0408
    104  CG        10.2180    8.0360   26.6750 C.3    81  GLN81       0.0908
    105  CD        11.7240    8.2260   26.8380 C.2    81  GLN81       0.2608
    106  OE1       12.4970    7.9190   25.9280 O.2    81  GLN81      -0.2717
    107  NE2       12.1480    8.7120   28.0100 N.am   81  GLN81      -0.0878
    108  N          7.1910    7.4860   25.2910 N.am   82  ASP82      -0.1971
    109  CA         6.6480    7.4320   23.9410 C.3    82  ASP82       0.1709
    110  C          7.8840    7.6570   23.1000 C.2    82  ASP82       0.2293
    111  O          8.9030    8.1110   23.6110 O.2    82  ASP82      -0.2864
    112  CB         5.5830    8.5220   23.6730 C.3    82  ASP82       0.1436
    113  CG         6.1670    9.9230   23.6110 C.2    82  ASP82       0.3671
    114  OD1        5.4100   10.8780   23.3780 O.co2  82  ASP82      -0.2456
    115  OD2        7.3810   10.0950   23.8010 O.co2  82  ASP82      -0.2456
    116  N          9.3440   11.5410   22.8530 N.3    85  LYS85      -0.1245
    117  CA        10.2330   12.0730   23.8630 C.3    85  LYS85       0.1561
    118  C         11.5980   11.4870   23.5690 C.2    85  LYS85       0.2260
    119  O         12.5840   12.2190   23.4800 O.2    85  LYS85      -0.2867
    120  CB         9.7850   11.6540   25.2580 C.3    85  LYS85       0.0271
    121  CG        10.0920   12.6770   26.3280 C.3    85  LYS85       0.0035
    122  CD        10.0750   12.0570   27.7210 C.3    85  LYS85       0.0206
    123  CE         8.6910   11.5190   28.1130 C.3    85  LYS85       0.1093
    124  NZ         7.6710   12.5920   28.3140 N.3    85  LYS85      -0.1314
    125  N          3.9340    9.7030   19.0200 N.3   127  GLN127     -0.1231
    126  CA         3.2040    9.8400   20.2710 C.3   127  GLN127      0.1698
    127  C          2.4640    8.5860   20.7650 C.2   127  GLN127      0.2592
    128  O          2.0800    8.5150   21.9280 O.2   127  GLN127     -0.2718
    129  CB         2.2300   11.0270   20.1640 C.3   127  GLN127      0.0381
    130  CG         2.9120   12.4310   20.0820 C.3   127  GLN127      0.0905
    131  CD         3.4820   12.8080   18.6870 C.2   127  GLN127      0.2608
    132  OE1        3.2980   12.0970   17.7000 O.2   127  GLN127     -0.2717
    133  NE2        4.1680   13.9530   18.6230 N.am  127  GLN127     -0.0878
    134  N          2.2290    7.6030   19.9030 N.am  128  ASN128     -0.1974
    135  CA         1.5590    6.3970   20.3740 C.3   128  ASN128      0.1688
    136  C          2.3760    5.1460   20.0850 C.2   128  ASN128      0.2292
    137  O          1.8380    4.0620   19.8310 O.2   128  ASN128     -0.2864
    138  CB         0.1620    6.2640   19.7910 C.3   128  ASN128      0.1181
    139  CG         0.0990    6.6890   18.3770 C.2   128  ASN128      0.2629
    140  OD1        0.9310    6.2880   17.5570 O.2   128  ASN128     -0.2716
    141  ND2       -0.8950    7.5020   18.0570 N.am  128  ASN128     -0.0877
    142  N          5.2250    3.2520   22.0730 N.3   130  LEU130     -0.1245
    143  CA         5.8130    3.1960   23.4040 C.3   130  LEU130      0.1561
    144  C          6.8700    2.1090   23.5700 C.2   130  LEU130      0.2260
    145  O          6.7150    0.9700   23.1160 O.2   130  LEU130     -0.2867
    146  CB         4.6800    3.0180   24.3980 C.3   130  LEU130      0.0270
    147  CG         3.5990    4.0720   24.0960 C.3   130  LEU130      0.0019
    148  CD1        2.2470    3.5080   24.3320 C.3   130  LEU130      0.0001
    149  CD2        3.8480    5.3290   24.9120 C.3   130  LEU130      0.0001
    150  N          0.0210    1.6270   20.3650 N.3   140  ALA140     -0.1231
    151  CA        -1.0150    2.0260   21.3140 C.3   140  ALA140      0.1694
    152  C         -2.1490    2.7670   20.5800 C.2   140  ALA140      0.2592
    153  O         -1.8820    3.5520   19.6700 O.2   140  ALA140     -0.2718
    154  CB        -0.4180    2.9100   22.3910 C.3   140  ALA140      0.0304
    155  N         -3.3960    2.5260   21.0020 N.am  141  ASP141     -0.1974
    156  CA        -4.6080    3.0940   20.3890 C.3   141  ASP141      0.1709
    157  C         -4.8640    2.4140   19.0720 C.2   141  ASP141      0.2293
    158  O         -5.5040    2.9670   18.1890 O.2   141  ASP141     -0.2864
    159  CB        -4.4900    4.5940   20.1500 C.3   141  ASP141      0.1436
    160  CG        -4.5990    5.3760   21.4240 C.2   141  ASP141      0.3671
    161  OD1       -5.6800    5.9300   21.7200 O.co2 141  ASP141     -0.2456
    162  OD2       -3.5960    5.4180   22.1440 O.co2 141  ASP141     -0.2456
@<TRIPOS>BOND
     1   140   139    2
     2   132   131    2
     3   141   139   am
     4   158   157    2
     5   139   138    1
     6   133   131   am
     7   131   130    1
     8   125   126    1
     9   157   156    1
    10   153   152    2
    11   138   135    1
    12   137   136    2
    13   134   135    1
    14   134   127   am
    15   130   129    1
    16   136   135    1
    17   159   156    1
    18   159   160    1
    19   129   126    1
    20   126   127    1
    21   150   151    1
    22   156   155    1
    23   152   155   am
    24   152   151    1
    25   127   128    2
    26   151   154    1
    27   160   161   ar
    28   160   162   ar
    29   142   143    1
    30    42    41    1
    31    16    15    2
    32    43    44    1
    33   116   117    1
    34   110   111    2
    35   110   109    1
    36   145   144    2
    37    15    14    1
    38   114   113   ar
    39   143   144    1
    40   143   146    1
    41   119   118    2
    42   118   117    1
    43   113   112    1
    44   113   115   ar
    45    41    40    1
    46   112   109    1
    47    46    45    2
    48   117   120    1
    49    49    47    1
    50   109   108    1
    51    44    47    1
    52    44    45    1
    53   147   148    1
    54   147   146    1
    55   147   149    1
    56    47    48    1
    57    58    60   ar
    58    58    56   ar
    59    14    17    1
    60    14    13    1
    61    40    39    1
    62    17    18    1
    63    60    59   ar
    64    13    11   am
    65   120   121    1
    66   108   101   am
    67   102   101    2
    68    56    55   ar
    69    20    19   ar
    70   101   100    1
    71   106   105    2
    72    88    86    1
    73    59    57   ar
    74    39    38    1
    75    19    18    1
    76    19    21   ar
    77   121   122    1
    78    28    26    1
    79    11    10    1
    80    11    12    2
    81    69    67   ar
    82    10     9    1
    83   104   105    1
    84   104   103    1
    85   105   107   am
    86    55    57   ar
    87    55    54    1
    88   103   100    1
    89   100    99    1
    90    38    35    1
    91    86    87    1
    92    86    85    1
    93    67    66    1
    94    67    68   ar
    95    85    82    1
    96     4     3    2
    97    26    27    1
    98    26    23    1
    99   122   123    1
   100    54    51    1
   101    66    65    1
   102     9     3   am
   103    99    91   am
   104   123   124    1
   105    22    23    1
   106     3     2    1
   107    37    36    2
   108    35    36    1
   109    35    34    1
   110    23    24    1
   111    64    63    2
   112     7     5    1
   113    51    50    1
   114    51    52    1
   115    82    83    1
   116    82    81    1
   117    91    92    2
   118    91    90    1
   119    61    52   am
   120    61    62    1
   121    65    62    1
   122    83    89   am
   123    83    84    2
   124    81    72   am
   125    89    90    1
   126    52    53    2
   127    63    62    1
   128    63    70   am
   129     2     5    1
   130     2     1    1
   131    24    25    2
   132    33    30    1
   133    90    93    1
   134     5     6    1
   135    72    73    2
   136    72    71    1
   137    32    31    2
   138    71    70    1
   139    71    74    1
   140    93    94    1
   141     8     6    1
   142    31    30    1
   143    30    29    1
   144    76    78   ar
   145    76    75   ar
   146    78    80   ar
   147    74    75    1
   148    94    96   ar
   149    94    95   ar
   150    75    77   ar
   151    80    79   ar
   152    96    98   ar
   153    77    79   ar
   154    95    97   ar
   155    98    97   ar
