@<TRIPOS>MOLECULE
tmp/1pxoA00.pdb
 136 130 0 0 0
SMALL
GASTEIGER

@<TRIPOS>ATOM
      1  N         13.8840  -13.6740    6.2330 N.3    10  ILE10      -0.1231
      2  CA        12.7740  -12.7820    6.5410 C.3    10  ILE10       0.1692
      3  C         13.1080  -11.3130    6.3180 C.2    10  ILE10       0.2592
      4  O         12.2460  -10.4470    6.4640 O.2    10  ILE10      -0.2718
      5  CB        12.3140  -12.9650    8.0040 C.3    10  ILE10       0.0266
      6  CG1       13.4690  -12.6460    8.9570 C.3    10  ILE10       0.0019
      7  CG2       11.8270  -14.3900    8.2160 C.3    10  ILE10       0.0020
      8  CD1       13.1170  -12.7760   10.4270 C.3    10  ILE10       0.0001
      9  N         14.3550  -11.0300    5.9600 N.am   11  GLY11      -0.1957
     10  CA        14.7370   -9.6500    5.7420 C.3    11  GLY11       0.1869
     11  C         15.9790   -9.4360    4.9040 C.2    11  GLY11       0.2309
     12  O         16.8330  -10.3150    4.7920 O.2    11  GLY11      -0.2863
     13  N         18.6320  -11.1530    7.1080 N.3    18  VAL18      -0.1245
     14  CA        17.9860  -11.5590    8.3530 C.3    18  VAL18       0.1561
     15  C         17.2470  -12.8710    8.1210 C.2    18  VAL18       0.2260
     16  O         16.4620  -12.9880    7.1820 O.2    18  VAL18      -0.2867
     17  CB        16.9630  -10.5070    8.8320 C.3    18  VAL18       0.0252
     18  CG1       16.4320  -10.8910   10.2100 C.3    18  VAL18       0.0019
     19  CG2       17.6000   -9.1320    8.8630 C.3    18  VAL18       0.0019
     20  N         15.3330  -14.4380   15.4890 N.3    31  ALA31      -0.1245
     21  CA        15.5710  -13.7180   14.2530 C.3    31  ALA31       0.1562
     22  C         17.0820  -13.6400   14.1600 C.2    31  ALA31       0.2260
     23  O         17.7410  -13.1240   15.0610 O.2    31  ALA31      -0.2867
     24  CB        14.9850  -12.3330   14.3180 C.3    31  ALA31       0.0290
     25  N         20.5330  -11.9640   12.4240 N.3    33  LYS33      -0.1245
     26  CA        21.1290  -10.9940   11.4970 C.3    33  LYS33       0.1561
     27  C         22.6070  -11.2650   11.3570 C.2    33  LYS33       0.2260
     28  O         23.3180  -11.2260   12.3480 O.2    33  LYS33      -0.2867
     29  CB        20.9990   -9.5810   12.0570 C.3    33  LYS33       0.0271
     30  CG        20.0920   -8.6790   11.2980 C.3    33  LYS33       0.0035
     31  CD        20.7450   -7.9780   10.1260 C.3    33  LYS33       0.0206
     32  CE        19.8820   -6.7770    9.6910 C.3    33  LYS33       0.1093
     33  NZ        19.8470   -6.4850    8.2000 N.3    33  LYS33      -0.1314
     34  N         12.7120   -4.6040   20.6020 N.3    60  VAL60      -0.1245
     35  CA        13.0180   -5.9940   20.2740 C.3    60  VAL60       0.1561
     36  C         14.3230   -6.3240   20.9780 C.2    60  VAL60       0.2260
     37  O         15.3590   -5.7290   20.6880 O.2    60  VAL60      -0.2867
     38  CB        13.1950   -6.1910   18.7550 C.3    60  VAL60       0.0252
     39  CG1       13.6150   -7.6320   18.4510 C.3    60  VAL60       0.0019
     40  CG2       11.8960   -5.8620   18.0460 C.3    60  VAL60       0.0019
     41  N         18.2120  -11.9020   17.8250 N.3    76  PHE76      -0.1227
     42  CA        17.1080  -11.1110   18.3670 C.3    76  PHE76       0.1736
     43  C         15.8770  -11.9640   18.6560 C.2    76  PHE76       0.2595
     44  O         15.6840  -13.0130   18.0380 O.2    76  PHE76      -0.2718
     45  CB        16.6960  -10.0330   17.3600 C.3    76  PHE76       0.0547
     46  CG        17.6960   -8.9250   17.1900 C.ar   76  PHE76      -0.0202
     47  CD1       17.7600   -7.8790   18.1060 C.ar   76  PHE76      -0.0042
     48  CD2       18.5360   -8.8970   16.0820 C.ar   76  PHE76      -0.0042
     49  CE1       18.6450   -6.8210   17.9220 C.ar   76  PHE76      -0.0003
     50  CE2       19.4260   -7.8400   15.8880 C.ar   76  PHE76      -0.0003
     51  CZ        19.4760   -6.8000   16.8080 C.ar   76  PHE76      -0.0000
     52  N         15.0390  -11.5030   19.5820 N.am   77  GLU77      -0.1965
     53  CA        13.8070  -12.2190   19.8920 C.3    77  GLU77       0.1733
     54  C         13.0130  -12.1470   18.5950 C.2    77  GLU77       0.2616
     55  O         13.1670  -11.2030   17.8310 O.2    77  GLU77      -0.2715
     56  CB        13.0390  -11.5340   21.0280 C.3    77  GLU77       0.0429
     57  CG        12.4850  -10.1590   20.6920 C.3    77  GLU77       0.1163
     58  CD        11.5750   -9.6110   21.7820 C.2    77  GLU77       0.3649
     59  OE1       10.5730  -10.2780   22.1200 O.co2  77  GLU77      -0.2457
     60  OE2       11.8580   -8.5140   22.3010 O.co2  77  GLU77      -0.2457
     61  N         12.1630  -13.1340   18.3470 N.am   78  PHE78      -0.1960
     62  CA        11.3910  -13.1840   17.1070 C.3    78  PHE78       0.1771
     63  C          9.9280  -12.7570   17.2270 C.2    78  PHE78       0.2619
     64  O          9.2370  -13.1480   18.1660 O.2    78  PHE78      -0.2715
     65  CB        11.4480  -14.6120   16.5530 C.3    78  PHE78       0.0574
     66  CG        10.6700  -14.8130   15.2850 C.ar   78  PHE78      -0.0200
     67  CD1       11.2130  -14.4550   14.0520 C.ar   78  PHE78      -0.0042
     68  CD2        9.3950  -15.3760   15.3190 C.ar   78  PHE78      -0.0042
     69  CE1       10.5050  -14.6580   12.8720 C.ar   78  PHE78      -0.0003
     70  CE2        8.6730  -15.5820   14.1370 C.ar   78  PHE78      -0.0003
     71  CZ         9.2310  -15.2230   12.9150 C.ar   78  PHE78      -0.0000
     72  N          9.4710  -11.9420   16.2720 N.am   79  LEU79      -0.1963
     73  CA         8.0700  -11.5200   16.2070 C.3    79  LEU79       0.1728
     74  C          7.6060  -11.9020   14.8000 C.2    79  LEU79       0.2616
     75  O          8.3600  -11.7830   13.8360 O.2    79  LEU79      -0.2715
     76  CB         7.9030  -10.0140   16.4710 C.3    79  LEU79       0.0311
     77  CG         7.8380   -9.6610   17.9660 C.3    79  LEU79       0.0022
     78  CD1        9.2470   -9.5290   18.5100 C.3    79  LEU79       0.0001
     79  CD2        7.0710   -8.3590   18.1840 C.3    79  LEU79       0.0001
     80  N          6.3640  -12.3570   14.6830 N.am   80  HIS80      -0.1959
     81  CA         5.8480  -12.8330   13.4040 C.3    80  HIS80       0.1787
     82  C          5.4860  -11.8680   12.2830 C.2    80  HIS80       0.2620
     83  O          5.4590  -12.2720   11.1220 O.2    80  HIS80      -0.2715
     84  CB         4.6580  -13.7660   13.6540 C.3    80  HIS80       0.0785
     85  CG         5.0230  -15.0230   14.3800 C.ar   80  HIS80       0.0821
     86  ND1        5.2570  -15.0590   15.7390 N.ar   80  HIS80      -0.2267
     87  CD2        5.2170  -16.2870   13.9310 C.ar   80  HIS80       0.1154
     88  CE1        5.5780  -16.2910   16.0960 C.ar   80  HIS80       0.1986
     89  NE2        5.5610  -17.0550   15.0170 N.ar   80  HIS80      -0.2212
     90  N          5.2070  -10.6080   12.5950 N.am   81  GLN81      -0.1977
     91  CA         4.8430   -9.6810   11.5280 C.3    81  GLN81       0.1601
     92  C          5.3490   -8.2700   11.7880 C.2    81  GLN81       0.2287
     93  O          5.5770   -7.8900   12.9320 O.2    81  GLN81      -0.2864
     94  CB         3.3230   -9.6660   11.3610 C.3    81  GLN81       0.0394
     95  CG         2.8300   -8.9780   10.0890 C.3    81  GLN81       0.0908
     96  CD         1.3680   -9.2700    9.8160 C.2    81  GLN81       0.2608
     97  OE1        0.9760  -10.4290    9.6680 O.2    81  GLN81      -0.2717
     98  NE2        0.5530   -8.2240    9.7530 N.am   81  GLN81      -0.0878
     99  N          8.8640   -1.1620    8.3820 N.3   127  GLN127     -0.1231
    100  CA         9.5220   -2.4630    8.3240 C.3   127  GLN127      0.1698
    101  C         10.2580   -2.8800    9.5990 C.2   127  GLN127      0.2592
    102  O         10.4460   -4.0720    9.8310 O.2   127  GLN127     -0.2718
    103  CB        10.4950   -2.5220    7.1390 C.3   127  GLN127      0.0381
    104  CG         9.8400   -2.3870    5.7670 C.3   127  GLN127      0.0905
    105  CD         9.7710   -0.9490    5.2760 C.2   127  GLN127      0.2608
    106  OE1        9.1010   -0.1010    5.8690 O.2   127  GLN127     -0.2717
    107  NE2       10.4730   -0.6690    4.1840 N.am  127  GLN127     -0.0878
    108  N         10.6940   -1.9320   10.4250 N.am  128  ASN128     -0.1974
    109  CA        11.3730   -2.3320   11.6600 C.3   128  ASN128      0.1688
    110  C         10.5300   -2.1520   12.9150 C.2   128  ASN128      0.2292
    111  O         11.0570   -2.0280   14.0230 O.2   128  ASN128     -0.2864
    112  CB        12.7260   -1.6310   11.8270 C.3   128  ASN128      0.1181
    113  CG        12.6940   -0.1910   11.4210 C.2   128  ASN128      0.2629
    114  OD1       11.9030    0.6000   11.9370 O.2   128  ASN128     -0.2716
    115  ND2       13.5700    0.1720   10.4890 N.am  128  ASN128     -0.0877
    116  N          7.7470   -4.1840   14.8290 N.3   130  LEU130     -0.1245
    117  CA         7.2040   -5.5340   14.8900 C.3   130  LEU130      0.1561
    118  C          6.0500   -5.6920   15.8660 C.2   130  LEU130      0.2260
    119  O          6.0750   -5.1430   16.9640 O.2   130  LEU130     -0.2867
    120  CB         8.3180   -6.4950   15.2720 C.3   130  LEU130      0.0270
    121  CG         9.5600   -6.3330   14.4060 C.3   130  LEU130      0.0019
    122  CD1       10.7030   -7.0190   15.0970 C.3   130  LEU130      0.0001
    123  CD2        9.3250   -6.8980   13.0050 C.3   130  LEU130      0.0001
    124  N         12.6790   -2.3590   16.2810 N.3   140  ALA140     -0.1231
    125  CA        13.8110   -3.2220   15.9890 C.3   140  ALA140      0.1694
    126  C         14.9760   -2.4270   15.4030 C.2   140  ALA140      0.2592
    127  O         14.7640   -1.4710   14.6600 O.2   140  ALA140     -0.2718
    128  CB        13.3790   -4.3000   15.0130 C.3   140  ALA140      0.0304
    129  N         16.1960   -2.8230   15.7620 N.am  141  ASP141     -0.1974
    130  CA        17.4360   -2.2030   15.2780 C.3   141  ASP141      0.1709
    131  C         17.8730   -0.8710   15.8880 C.2   141  ASP141      0.2293
    132  O         18.6060   -0.1130   15.2540 O.2   141  ASP141     -0.2864
    133  CB        17.3980   -2.0580   13.7490 C.3   141  ASP141      0.1436
    134  CG        17.4180   -3.4010   13.0350 C.2   141  ASP141      0.3671
    135  OD1       17.9050   -4.3840   13.6320 O.co2 141  ASP141     -0.2456
    136  OD2       16.9610   -3.4750   11.8740 O.co2 141  ASP141     -0.2456
@<TRIPOS>BOND
     1   107   105   am
     2    12    11    2
     3    11    10    1
     4   105   104    1
     5   105   106    2
     6    10     9    1
     7   104   103    1
     8     9     3   am
     9     1     2    1
    10     3     4    2
    11     3     2    1
    12     2     5    1
    13    13    14    1
    14   103   100    1
    15    16    15    2
    16     5     7    1
    17     5     6    1
    18    15    14    1
    19    33    32    1
    20   100    99    1
    21   100   101    1
    22    14    17    1
    23    17    19    1
    24    17    18    1
    25     6     8    1
    26   101   102    2
    27   101   108   am
    28    97    96    2
    29    32    31    1
    30    98    96   am
    31    96    95    1
    32    95    94    1
    33    31    30    1
    34   108   109    1
    35   115   113   am
    36    83    82    2
    37    30    29    1
    38    27    26    1
    39    27    28    2
    40    94    91    1
    41   113   112    1
    42   113   114    2
    43    26    29    1
    44    26    25    1
    45    91    92    1
    46    91    90    1
    47   109   112    1
    48   109   110    1
    49    92    93    2
    50   136   134   ar
    51    82    90   am
    52    82    81    1
    53    69    71   ar
    54    69    67   ar
    55   110   111    2
    56    71    70   ar
    57   123   121    1
    58   134   135   ar
    59   134   133    1
    60    81    84    1
    61    81    80    1
    62    84    85    1
    63   133   130    1
    64    75    74    2
    65    87    85   ar
    66    87    89   ar
    67    67    66   ar
    68    70    68   ar
    69    22    21    1
    70    22    23    2
    71    21    24    1
    72    21    20    1
    73    85    86   ar
    74   121   122    1
    75   121   120    1
    76   127   126    2
    77    80    74   am
    78    74    73    1
    79   116   117    1
    80   117   120    1
    81   117   118    1
    82   128   125    1
    83    89    88   ar
    84   132   131    2
    85   130   129    1
    86   130   131    1
    87    66    68   ar
    88    66    65    1
    89   126   129   am
    90   126   125    1
    91    86    88   ar
    92   118   119    2
    93    50    48   ar
    94    50    51   ar
    95   125   124    1
    96    48    46   ar
    97    73    72    1
    98    73    76    1
    99    72    63   am
   100    76    77    1
   101    65    62    1
   102    51    49   ar
   103    62    63    1
   104    62    61    1
   105    46    45    1
   106    46    47   ar
   107    63    64    2
   108    45    42    1
   109    41    42    1
   110    55    54    2
   111    49    47   ar
   112    77    79    1
   113    77    78    1
   114    44    43    2
   115    40    38    1
   116    61    54   am
   117    42    43    1
   118    39    38    1
   119    54    53    1
   120    43    52   am
   121    38    35    1
   122    52    53    1
   123    53    56    1
   124    35    34    1
   125    35    36    1
   126    37    36    2
   127    57    56    1
   128    57    58    1
   129    58    59   ar
   130    58    60   ar
