@<TRIPOS>MOLECULE
tmp/1pxxA06.pdb
 202 194 0 0 0
SMALL
GASTEIGER

@<TRIPOS>ATOM
      1  N         33.4240   15.7560   22.5180 N.3    85  VAL85      -0.1245
      2  CA        32.6360   16.4390   21.5000 C.3    85  VAL85       0.1561
      3  C         33.5880   17.0620   20.4790 C.2    85  VAL85       0.2260
      4  O         33.2990   17.0880   19.2800 O.2    85  VAL85      -0.2867
      5  CB        31.7260   17.5400   22.1190 C.3    85  VAL85       0.0252
      6  CG1       31.5170   17.2820   23.6150 C.3    85  VAL85       0.0019
      7  CG2       32.3280   18.9060   21.8860 C.3    85  VAL85       0.0019
      8  N         33.8880   14.5580   16.6450 N.3    89  ARG89      -0.1245
      9  CA        33.4470   15.3040   15.4760 C.3    89  ARG89       0.1563
     10  C         34.5050   15.3840   14.3730 C.2    89  ARG89       0.2260
     11  O         34.3170   14.8750   13.2640 O.2    89  ARG89      -0.2867
     12  CB        33.0930   16.7210   15.9050 C.3    89  ARG89       0.0307
     13  CG        31.7170   17.1530   15.4970 C.3    89  ARG89       0.0489
     14  CD        30.6900   16.6360   16.4770 C.3    89  ARG89       0.2205
     15  NE        29.3960   16.4840   15.8360 N.pl3  89  ARG89      -0.0865
     16  CZ        28.2390   16.6430   16.4600 C.cat  89  ARG89       0.5346
     17  NH1       28.2130   16.9590   17.7440 N.pl3  89  ARG89       0.1354
     18  NH2       27.1090   16.4760   15.8010 N.pl3  89  ARG89       0.1354
     19  N         29.3470   37.0810   11.5460 N.3   174  PHE174     -0.1241
     20  CA        30.4430   36.1410   11.7610 C.3   174  PHE174      0.1605
     21  C         30.7260   35.2110   10.5660 C.2   174  PHE174      0.2264
     22  O         31.8610   35.1440   10.0810 O.2   174  PHE174     -0.2867
     23  CB        30.1360   35.3320   13.0280 C.3   174  PHE174      0.0534
     24  CG        30.9220   34.0570   13.1650 C.ar  174  PHE174     -0.0203
     25  CD1       32.2560   34.0890   13.5540 C.ar  174  PHE174     -0.0042
     26  CD2       30.3140   32.8140   12.9690 C.ar  174  PHE174     -0.0042
     27  CE1       32.9710   32.8980   13.7510 C.ar  174  PHE174     -0.0003
     28  CE2       31.0240   31.6270   13.1660 C.ar  174  PHE174     -0.0003
     29  CZ        32.3500   31.6720   13.5580 C.ar  174  PHE174     -0.0000
     30  N         34.2800   34.2100    6.4420 N.3   178  PHE178     -0.1241
     31  CA        34.8100   33.0980    5.6750 C.3   178  PHE178      0.1605
     32  C         33.9250   32.6380    4.5180 C.2   178  PHE178      0.2264
     33  O         34.3320   31.7720    3.7400 O.2   178  PHE178     -0.2867
     34  CB        35.1680   31.9040    6.5740 C.3   178  PHE178      0.0534
     35  CG        34.1210   31.5510    7.5890 C.ar  178  PHE178     -0.0203
     36  CD1       34.3280   31.8200    8.9320 C.ar  178  PHE178     -0.0042
     37  CD2       32.9590   30.8780    7.2100 C.ar  178  PHE178     -0.0042
     38  CE1       33.4050   31.4190    9.8690 C.ar  178  PHE178     -0.0003
     39  CE2       32.0350   30.4750    8.1400 C.ar  178  PHE178     -0.0003
     40  CZ        32.2500   30.7400    9.4680 C.ar  178  PHE178     -0.0000
     41  N         31.6590   32.2850   20.1470 N.3   313  VAL313     -0.1245
     42  CA        31.0040   31.4110   19.2110 C.3   313  VAL313      0.1561
     43  C         30.8060   30.0360   19.8280 C.2   313  VAL313      0.2260
     44  O         29.8190   29.3780   19.5500 O.2   313  VAL313     -0.2867
     45  CB        31.8200   31.3020   17.8940 C.3   313  VAL313      0.0252
     46  CG1       31.1470   30.3230   16.9460 C.3   313  VAL313      0.0019
     47  CG2       31.9360   32.6830   17.2290 C.3   313  VAL313      0.0019
     48  N         26.9500   31.4450   21.3090 N.3   317  TYR317     -0.1227
     49  CA        26.3440   31.1100   20.0410 C.3   317  TYR317      0.1736
     50  C         25.9940   29.6370   19.8690 C.2   317  TYR317      0.2595
     51  O         24.8240   29.2850   19.7730 O.2   317  TYR317     -0.2718
     52  CB        27.2820   31.5910   18.9330 C.3   317  TYR317      0.0548
     53  CG        26.7750   31.4510   17.5170 C.ar  317  TYR317     -0.0200
     54  CD1       26.0440   32.4690   16.9010 C.ar  317  TYR317     -0.0009
     55  CD2       27.1220   30.3480   16.7520 C.ar  317  TYR317     -0.0009
     56  CE1       25.6860   32.3850   15.5410 C.ar  317  TYR317      0.0417
     57  CE2       26.7750   30.2560   15.4000 C.ar  317  TYR317      0.0417
     58  CZ        26.0690   31.2680   14.8000 C.ar  317  TYR317      0.1957
     59  OH        25.8050   31.1710   13.4520 O.3   317  TYR317     -0.2866
     60  N         26.9920   28.7680   19.8220 N.am  318  VAL318     -0.1980
     61  CA        26.7120   27.3440   19.6460 C.3   318  VAL318      0.1595
     62  C         25.9660   26.7990   20.8460 C.2   318  VAL318      0.2287
     63  O         25.1220   25.9210   20.7120 O.2   318  VAL318     -0.2864
     64  CB        27.9830   26.4940   19.4890 C.3   318  VAL318      0.0276
     65  CG1       27.6010   25.0570   19.3510 C.3   318  VAL318      0.0022
     66  CG2       28.7560   26.9250   18.2760 C.3   318  VAL318      0.0022
     67  N         22.4510   27.4830   20.1650 N.3   321  LEU321     -0.1231
     68  CA        22.1020   26.7240   18.9790 C.3   321  LEU321      0.1693
     69  C         21.8700   25.2390   19.2450 C.2   321  LEU321      0.2592
     70  O         20.8460   24.6910   18.8490 O.2   321  LEU321     -0.2718
     71  CB        23.2130   26.8640   17.9610 C.3   321  LEU321      0.0284
     72  CG        22.8090   26.9910   16.5120 C.3   321  LEU321      0.0019
     73  CD1       21.7150   28.0360   16.4010 C.3   321  LEU321      0.0001
     74  CD2       24.0130   27.3940   15.6940 C.3   321  LEU321      0.0001
     75  N         22.8280   24.5900   19.9010 N.am  322  SER322     -0.1952
     76  CA        22.7510   23.1670   20.2090 C.3   322  SER322      0.1924
     77  C         21.6170   22.7570   21.1440 C.2   322  SER322      0.2314
     78  O         21.0630   21.6720   21.0160 O.2   322  SER322     -0.2863
     79  CB        24.0690   22.7100   20.8140 C.3   322  SER322      0.2116
     80  OG        24.2450   23.2510   22.1200 O.3   322  SER322     -0.2180
     81  N         22.0240   22.0680   24.0830 N.3   324  TYR324     -0.1241
     82  CA        22.6470   21.1680   25.0390 C.3   324  TYR324      0.1605
     83  C         22.5300   21.7110   26.4490 C.2   324  TYR324      0.2264
     84  O         22.5220   22.9210   26.6490 O.2   324  TYR324     -0.2867
     85  CB        24.1300   20.9780   24.6900 C.3   324  TYR324      0.0534
     86  CG        24.3640   20.2220   23.4000 C.ar  324  TYR324     -0.0201
     87  CD1       23.3070   19.6080   22.7330 C.ar  324  TYR324     -0.0009
     88  CD2       25.6330   20.1320   22.8400 C.ar  324  TYR324     -0.0009
     89  CE1       23.5060   18.9260   21.5420 C.ar  324  TYR324      0.0417
     90  CE2       25.8430   19.4500   21.6460 C.ar  324  TYR324      0.0417
     91  CZ        24.7740   18.8500   21.0020 C.ar  324  TYR324      0.1957
     92  OH        24.9530   18.1770   19.8090 O.3   324  TYR324     -0.2866
     93  N         29.2720   23.9580   27.0640 N.3   328  LEU328     -0.1245
     94  CA        30.3970   23.8950   26.1530 C.3   328  LEU328      0.1561
     95  C         31.5520   24.7120   26.6910 C.2   328  LEU328      0.2260
     96  O         31.3490   25.6950   27.4060 O.2   328  LEU328     -0.2867
     97  CB        29.9800   24.4120   24.7850 C.3   328  LEU328      0.0270
     98  CG        28.9180   23.5230   24.1490 C.3   328  LEU328      0.0019
     99  CD1       28.6530   23.9910   22.7360 C.3   328  LEU328      0.0001
    100  CD2       29.3730   22.0730   24.1530 C.3   328  LEU328      0.0001
    101  N         29.5070   23.5470    3.5630 N.3   350  PHE350     -0.1241
    102  CA        29.2910   24.2620    4.8130 C.3   350  PHE350      0.1605
    103  C         28.6110   25.5800    4.4510 C.2   350  PHE350      0.2264
    104  O         27.6500   26.0000    5.0710 O.2   350  PHE350     -0.2867
    105  CB        30.6370   24.5240    5.4990 C.3   350  PHE350      0.0534
    106  CG        30.5190   25.0830    6.9000 C.ar  350  PHE350     -0.0203
    107  CD1       29.5250   24.6400    7.7620 C.ar  350  PHE350     -0.0042
    108  CD2       31.4150   26.0490    7.3560 C.ar  350  PHE350     -0.0042
    109  CE1       29.4270   25.1450    9.0500 C.ar  350  PHE350     -0.0003
    110  CE2       31.3220   26.5550    8.6370 C.ar  350  PHE350     -0.0003
    111  CZ        30.3270   26.1010    9.4860 C.ar  350  PHE350     -0.0000
    112  N         24.9610   24.8930    3.5350 N.3   353  LEU353     -0.1231
    113  CA        24.1430   24.6010    4.6980 C.3   353  LEU353      0.1693
    114  C         23.9400   25.7970    5.6310 C.2   353  LEU353      0.2592
    115  O         23.1260   25.7380    6.5520 O.2   353  LEU353     -0.2718
    116  CB        24.7580   23.4240    5.4740 C.3   353  LEU353      0.0284
    117  CG        26.0130   23.6720    6.3190 C.3   353  LEU353      0.0019
    118  CD1       25.6570   24.3640    7.6680 C.3   353  LEU353      0.0001
    119  CD2       26.7220   22.3410    6.5230 C.3   353  LEU353      0.0001
    120  N         24.6400   26.8950    5.3750 N.am  354  TYR354     -0.1976
    121  CA        24.5490   28.0610    6.2550 C.3   354  TYR354      0.1639
    122  C         23.6470   29.1770    5.7610 C.2   354  TYR354      0.2290
    123  O         23.5350   30.2210    6.4030 O.2   354  TYR354     -0.2864
    124  CB        25.9490   28.6190    6.5400 C.3   354  TYR354      0.0560
    125  CG        26.2640   28.7270    8.0160 C.ar  354  TYR354     -0.0198
    126  CD1       27.1780   27.8670    8.6310 C.ar  354  TYR354     -0.0009
    127  CD2       25.6650   29.7130    8.7960 C.ar  354  TYR354     -0.0009
    128  CE1       27.4830   28.0000    9.9810 C.ar  354  TYR354      0.0417
    129  CE2       25.9690   29.8460   10.1380 C.ar  354  TYR354      0.0417
    130  CZ        26.8750   28.9950   10.7220 C.ar  354  TYR354      0.1957
    131  OH        27.1800   29.1850   12.0480 O.3   354  TYR354     -0.2866
    132  N         20.9220   30.5340    6.0860 N.3   356  TRP356     -0.1241
    133  CA        19.8590   30.5910    7.0860 C.3   356  TRP356      0.1605
    134  C         18.8600   31.7470    6.9180 C.2   356  TRP356      0.2264
    135  O         18.4220   32.3410    7.9030 O.2   356  TRP356     -0.2867
    136  CB        20.5110   30.6610    8.4660 C.3   356  TRP356      0.0550
    137  CG        21.1990   29.3990    8.8030 C.ar  356  TRP356      0.0003
    138  CD1       21.1830   28.2310    8.0720 C.ar  356  TRP356      0.0946
    139  CD2       21.9690   29.1240    9.9820 C.ar  356  TRP356      0.0152
    140  NE1       21.8970   27.2480    8.7330 N.ar  356  TRP356     -0.2442
    141  CE2       22.3890   27.7700    9.9070 C.ar  356  TRP356      0.0810
    142  CE3       22.3480   29.8870   11.0990 C.ar  356  TRP356      0.0012
    143  CZ2       23.1700   27.1720   10.9110 C.ar  356  TRP356      0.0191
    144  CZ3       23.1180   29.2900   12.0920 C.ar  356  TRP356      0.0001
    145  CH2       23.5190   27.9470   11.9890 C.ar  356  TRP356      0.0015
    146  N         16.6360   23.2850   13.9310 N.3   487  PHE487     -0.1241
    147  CA        17.2780   22.4840   12.8730 C.3   487  PHE487      0.1605
    148  C         16.9390   20.9920   12.8730 C.2   487  PHE487      0.2264
    149  O         16.4430   20.4460   13.8520 O.2   487  PHE487     -0.2867
    150  CB        18.8160   22.5260   12.9780 C.3   487  PHE487      0.0534
    151  CG        19.4270   23.8800   12.8460 C.ar  487  PHE487     -0.0203
    152  CD1       18.9450   24.8010   11.9450 C.ar  487  PHE487     -0.0042
    153  CD2       20.5160   24.2120   13.6300 C.ar  487  PHE487     -0.0042
    154  CE1       19.5410   26.0460   11.8310 C.ar  487  PHE487     -0.0003
    155  CE2       21.1210   25.4460   13.5250 C.ar  487  PHE487     -0.0003
    156  CZ        20.6330   26.3710   12.6240 C.ar  487  PHE487     -0.0000
    157  N         21.4030   19.0030    9.2900 N.3   491  MET491     -0.1230
    158  CA        21.9700   20.3300    9.4930 C.3   491  MET491      0.1702
    159  C         23.0130   20.3500   10.6070 C.2   491  MET491      0.2592
    160  O         24.0940   20.8960   10.4390 O.2   491  MET491     -0.2718
    161  CB        20.8630   21.3220    9.8280 C.3   491  MET491      0.0401
    162  CG        21.3570   22.7510    9.9280 C.3   491  MET491      0.0596
    163  SD        21.9620   23.3720    8.3590 S.3   491  MET491     -0.1393
    164  CE        20.4820   24.1210    7.7130 C.3   491  MET491      0.0692
    165  N         22.6870   19.7570   11.7460 N.am  492  VAL492     -0.1980
    166  CA        23.6000   19.7270   12.8690 C.3   492  VAL492      0.1595
    167  C         24.7320   18.7630   12.6810 C.2   492  VAL492      0.2287
    168  O         25.8160   18.9910   13.1840 O.2   492  VAL492     -0.2864
    169  CB        22.8990   19.3080   14.1400 C.3   492  VAL492      0.0276
    170  CG1       23.9270   19.0400   15.2280 C.3   492  VAL492      0.0022
    171  CG2       21.9070   20.3740   14.5580 C.3   492  VAL492      0.0022
    172  N         27.1240   20.4680    9.8180 N.3   495  GLY495     -0.1210
    173  CA        27.7110   21.7030   10.2770 C.3   495  GLY495      0.1956
    174  C         28.6640   21.6650   11.4520 C.2   495  GLY495      0.2611
    175  O         29.6120   22.4540   11.4890 O.2   495  GLY495     -0.2717
    176  N         28.4160   20.7900   12.4200 N.am  496  ALA496     -0.1979
    177  CA        29.2690   20.7130   13.5820 C.3   496  ALA496      0.1597
    178  C         30.7290   20.3940   13.2300 C.2   496  ALA496      0.2287
    179  O         31.6500   21.0690   13.7050 O.2   496  ALA496     -0.2864
    180  CB        28.7210   19.6990   14.5380 C.3   496  ALA496      0.0319
    181  N         32.3820   23.1910   11.3970 N.3   499  SER499     -0.1202
    182  CA        32.4430   24.2930   12.3400 C.3   499  SER499      0.2020
    183  C         33.5930   24.2350   13.3250 C.2   499  SER499      0.2618
    184  O         34.4080   25.1500   13.3600 O.2   499  SER499     -0.2717
    185  CB        31.1300   24.4000   13.0970 C.3   499  SER499      0.2103
    186  OG        31.0860   25.6220   13.7980 O.3   499  SER499     -0.2182
    187  N         33.6610   23.1810   14.1360 N.am  500  LEU500     -0.1979
    188  CA        34.7440   23.0580   15.1170 C.3   500  LEU500      0.1596
    189  C         36.1260   22.9730   14.4350 C.2   500  LEU500      0.2287
    190  O         37.1370   23.4690   14.9490 O.2   500  LEU500     -0.2864
    191  CB        34.5200   21.8270   15.9990 C.3   500  LEU500      0.0297
    192  CG        33.2890   21.8270   16.9070 C.3   500  LEU500      0.0022
    193  CD1       32.9640   20.3840   17.2880 C.3   500  LEU500      0.0001
    194  CD2       33.5470   22.6670   18.1520 C.3   500  LEU500      0.0001
    195  N         37.1690   26.3990   13.9240 N.3   503  LEU503     -0.1245
    196  CA        37.2020   27.1490   15.1860 C.3   503  LEU503      0.1561
    197  C         38.4160   26.6830   15.9710 C.2   503  LEU503      0.2260
    198  O         39.1920   27.4870   16.4640 O.2   503  LEU503     -0.2867
    199  CB        35.9250   26.8650   16.0040 C.3   503  LEU503      0.0270
    200  CG        34.9960   27.9950   16.4580 C.3   503  LEU503      0.0019
    201  CD1       34.9680   29.0920   15.4070 C.3   503  LEU503      0.0001
    202  CD2       33.5980   27.4520   16.7110 C.3   503  LEU503      0.0001
@<TRIPOS>BOND
     1   112   113    1
     2   101   102    1
     3    33    32    2
     4   103   102    1
     5   103   104    2
     6    32    31    1
     7   113   116    1
     8   113   114    1
     9   102   105    1
    10   120   114   am
    11   120   121    1
    12   116   117    1
    13   105   106    1
    14   114   115    2
    15    31    30    1
    16    31    34    1
    17   122   121    1
    18   122   123    2
    19   132   133    1
    20   121   124    1
    21   117   119    1
    22   117   118    1
    23   124   125    1
    24    34    35    1
    25   106   108   ar
    26   106   107   ar
    27   134   133    1
    28   134   135    2
    29   133   136    1
    30    37    35   ar
    31    37    39   ar
    32   108   110   ar
    33    35    36   ar
    34   164   163    1
    35   107   109   ar
    36   125   126   ar
    37   125   127   ar
    38   138   140   ar
    39   138   137   ar
    40    39    40   ar
    41   163   162    1
    42   136   137    1
    43   126   128   ar
    44   110   111   ar
    45   140   141   ar
    46   127   129   ar
    47   137   139   ar
    48    36    38   ar
    49   109   111   ar
    50   157   158    1
    51    40    38   ar
    52   158   161    1
    53   158   159    1
    54   172   173    1
    55   161   162    1
    56   141   139   ar
    57   141   143   ar
    58   128   130   ar
    59   139   142   ar
    60    22    21    2
    61   129   130   ar
    62   173   174    1
    63   160   159    2
    64    21    20    1
    65   159   165   am
    66   130   131    1
    67   143   145   ar
    68   142   144   ar
    69   181   182    1
    70   174   175    2
    71   174   176   am
    72    19    20    1
    73   165   166    1
    74    20    23    1
    75   154   152   ar
    76   154   156   ar
    77   152   151   ar
    78   145   144   ar
    79   182   185    1
    80   182   183    1
    81   176   177    1
    82   156   155   ar
    83   167   166    1
    84   167   168    2
    85   151   150    1
    86   151   153   ar
    87   166   169    1
    88   147   148    1
    89   147   150    1
    90   147   146    1
    91   148   149    2
    92    26    24   ar
    93    26    28   ar
    94    23    24    1
    95   185   186    1
    96    24    25   ar
    97    28    29   ar
    98   178   177    1
    99   178   179    2
   100    11    10    2
   101   183   184    2
   102   183   187   am
   103    59    58    1
   104   155   153   ar
   105    25    27   ar
   106    29    27   ar
   107   177   180    1
   108   195   196    1
   109   187   188    1
   110   169   171    1
   111   169   170    1
   112    10     9    1
   113   189   190    2
   114   189   188    1
   115    58    57   ar
   116    58    56   ar
   117   188   191    1
   118   196   197    1
   119   196   199    1
   120    57    55   ar
   121   201   200    1
   122     9    12    1
   123     9     8    1
   124    13    12    1
   125    13    14    1
   126    56    54   ar
   127    74    72    1
   128    18    16    1
   129    15    16    2
   130    15    14    1
   131   197   198    2
   132   191   192    1
   133   199   200    1
   134    73    72    1
   135   200   202    1
   136    16    17    1
   137    72    71    1
   138    55    53   ar
   139    54    53   ar
   140   192   193    1
   141   192   194    1
   142    46    45    1
   143    47    45    1
   144    53    52    1
   145    45    42    1
   146    71    68    1
   147    66    64    1
   148    70    69    2
   149    52    49    1
   150    68    69    1
   151    68    67    1
   152    42    43    1
   153    42    41    1
   154    69    75   am
   155     4     3    2
   156    65    64    1
   157    64    61    1
   158    44    43    2
   159    61    60    1
   160    61    62    1
   161    51    50    2
   162    92    91    1
   163    60    50   am
   164    50    49    1
   165    75    76    1
   166    49    48    1
   167    76    79    1
   168    76    77    1
   169     3     2    1
   170    63    62    2
   171    79    80    1
   172    91    89   ar
   173    91    90   ar
   174    78    77    2
   175     2     5    1
   176     2     1    1
   177    89    87   ar
   178    90    88   ar
   179     7     5    1
   180     5     6    1
   181    87    86   ar
   182    99    98    1
   183    88    86   ar
   184    86    85    1
   185    81    82    1
   186    98   100    1
   187    98    97    1
   188    85    82    1
   189    97    94    1
   190    82    83    1
   191    94    95    1
   192    94    93    1
   193    83    84    2
   194    95    96    2
