@<TRIPOS>MOLECULE
tmp/1py1C00.pdb
 132 125 0 0 0
SMALL
GASTEIGER

@<TRIPOS>ATOM
      1  N          2.8220   57.9280   15.4870 N.3    80  LYS80      -0.1231
      2  CA         2.1380   57.3950   14.2930 C.3    80  LYS80       0.1693
      3  C          3.1050   57.2390   13.1130 C.2    80  LYS80       0.2592
      4  O          4.1000   57.9420   13.0370 O.2    80  LYS80      -0.2718
      5  CB         0.9690   58.2950   13.8780 C.3    80  LYS80       0.0285
      6  CG        -0.2170   58.2410   14.8310 C.3    80  LYS80       0.0035
      7  CD        -1.3550   59.1410   14.3720 C.3    80  LYS80       0.0206
      8  CE        -2.5550   59.0780   15.3310 C.3    80  LYS80       0.1093
      9  NZ        -3.2320   57.7430   15.3610 N.3    80  LYS80      -0.1314
     10  N          2.8140   56.3030   12.2130 N.am   81  PHE81      -0.1962
     11  CA         3.6860   56.1040   11.0500 C.3    81  PHE81       0.1771
     12  C          3.6360   57.3240   10.1160 C.2    81  PHE81       0.2619
     13  O          4.5450   57.5630    9.3580 O.2    81  PHE81      -0.2715
     14  CB         3.3050   54.8310   10.2860 C.3    81  PHE81       0.0574
     15  CG         3.6070   53.5620   11.0310 C.ar   81  PHE81      -0.0200
     16  CD1        4.9060   53.2670   11.4360 C.ar   81  PHE81      -0.0042
     17  CD2        2.5860   52.6620   11.3410 C.ar   81  PHE81      -0.0042
     18  CE1        5.1860   52.0930   12.1440 C.ar   81  PHE81      -0.0003
     19  CE2        2.8530   51.4810   12.0500 C.ar   81  PHE81      -0.0003
     20  CZ         4.1510   51.1950   12.4530 C.ar   81  PHE81      -0.0000
     21  N          2.5480   58.0750   10.1960 N.am   82  ARG82      -0.1977
     22  CA         2.4210   59.2900    9.4080 C.3    82  ARG82       0.1597
     23  C          3.6940   60.1830    9.6010 C.2    82  ARG82       0.2287
     24  O          4.1790   60.8260    8.6920 O.2    82  ARG82      -0.2864
     25  CB         1.1710   60.0530    9.8530 C.3    82  ARG82       0.0334
     26  CG         0.8570   61.3000    9.0450 C.3    82  ARG82       0.0492
     27  CD        -0.1330   61.0180    7.9220 C.3    82  ARG82       0.2205
     28  NE        -1.4560   60.6330    8.4380 N.pl3  82  ARG82      -0.0865
     29  CZ        -2.5350   60.4860    7.6730 C.cat  82  ARG82       0.5346
     30  NH1       -2.4460   60.6910    6.3600 N.pl3  82  ARG82       0.1354
     31  NH2       -3.6950   60.1390    8.2130 N.pl3  82  ARG82       0.1354
     32  N          7.4860   57.5940    9.3440 N.3    85  ASN85      -0.1225
     33  CA         7.9490   57.3360    7.9990 C.3    85  ASN85       0.1785
     34  C          8.8430   58.4760    7.5170 C.2    85  ASN85       0.2597
     35  O          9.9090   58.2400    6.9370 O.2    85  ASN85      -0.2718
     36  CB         6.7750   57.1790    7.0350 C.3    85  ASN85       0.1169
     37  CG         6.1190   55.8040    7.1190 C.2    85  ASN85       0.2627
     38  OD1        6.7580   54.8250    7.5060 O.2    85  ASN85      -0.2716
     39  ND2        4.8420   55.7240    6.7270 N.am   85  ASN85      -0.0877
     40  N          8.4010   59.7120    7.7440 N.am   86  GLU86      -0.1979
     41  CA         9.2160   60.8690    7.3300 C.3    86  GLU86       0.1602
     42  C         10.6290   60.7660    7.9310 C.2    86  GLU86       0.2287
     43  O         11.5930   61.1370    7.2870 O.2    86  GLU86      -0.2864
     44  CB         8.5760   62.1880    7.7670 C.3    86  GLU86       0.0415
     45  CG         7.1380   62.3810    7.3380 C.3    86  GLU86       0.1163
     46  CD         6.8840   62.0000    5.8890 C.2    86  GLU86       0.3649
     47  OE1        7.7580   62.2440    5.0370 O.co2  86  GLU86      -0.2457
     48  OE2        5.7930   61.4640    5.5970 O.co2  86  GLU86      -0.2457
     49  N         12.1690   57.8690    8.7770 N.3    88  ILE88      -0.1231
     50  CA        12.7920   56.7480    8.0700 C.3    88  ILE88       0.1692
     51  C         13.3230   57.1950    6.7060 C.2    88  ILE88       0.2591
     52  O         14.4160   56.8170    6.3150 O.2    88  ILE88      -0.2718
     53  CB        11.8070   55.5960    7.8420 C.3    88  ILE88       0.0266
     54  CG1       11.6010   54.8130    9.1210 C.3    88  ILE88       0.0019
     55  CG2       12.3490   54.6380    6.8260 C.3    88  ILE88       0.0020
     56  CD1       10.3930   53.9450    9.0430 C.3    88  ILE88       0.0001
     57  N         12.5510   58.0060    5.9890 N.am   89  LYS89      -0.1980
     58  CA        13.0330   58.4620    4.6860 C.3    89  LYS89       0.1596
     59  C         14.3710   59.2140    4.8060 C.2    89  LYS89       0.2287
     60  O         15.2360   59.0940    3.9460 O.2    89  LYS89      -0.2864
     61  CB        12.0320   59.3830    4.0130 C.3    89  LYS89       0.0298
     62  CG        10.7110   58.7620    3.6820 C.3    89  LYS89       0.0038
     63  CD         9.8580   59.7850    2.9490 C.3    89  LYS89       0.0206
     64  CE         8.4070   59.3930    2.9700 C.3    89  LYS89       0.1093
     65  NZ         7.5930   60.3930    2.2320 N.3    89  LYS89      -0.1314
     66  N         17.0370   56.2180    5.8700 N.3    92  SER92      -0.1217
     67  CA        17.0800   55.0770    4.9470 C.3    92  SER92       0.1889
     68  C         17.7500   55.4370    3.6040 C.2    92  SER92       0.2288
     69  O         17.2950   56.3170    2.8900 O.2    92  SER92      -0.2866
     70  CB        15.6710   54.5420    4.7020 C.3    92  SER92       0.2089
     71  OG        15.6940   53.4540    3.7970 O.3    92  SER92      -0.2183
     72  N         17.6670   53.9250    0.9780 N.3    94  LYS94      -0.1231
     73  CA        16.6810   53.6640   -0.0700 C.3    94  LYS94       0.1693
     74  C         15.9580   54.9550   -0.4920 C.2    94  LYS94       0.2592
     75  O         15.4370   55.0390   -1.5800 O.2    94  LYS94      -0.2718
     76  CB        15.6590   52.6270    0.4160 C.3    94  LYS94       0.0285
     77  CG        14.6170   52.2520   -0.6280 C.3    94  LYS94       0.0035
     78  CD        13.8630   50.9640   -0.2660 C.3    94  LYS94       0.0206
     79  CE        12.8870   50.5560   -1.3820 C.3    94  LYS94       0.1093
     80  NZ        12.3870   49.1580   -1.2420 N.3    94  LYS94      -0.1314
     81  N         15.9590   55.9500    0.3920 N.am   95  TYR95      -0.1976
     82  CA        15.2910   57.2380    0.1300 C.3    95  TYR95       0.1639
     83  C         16.2520   58.4210    0.1800 C.2    95  TYR95       0.2290
     84  O         17.1260   58.5280   -0.6530 O.2    95  TYR95      -0.2864
     85  CB        14.1590   57.4530    1.1330 C.3    95  TYR95       0.0560
     86  CG        13.1500   56.3310    1.1240 C.ar   95  TYR95      -0.0198
     87  CD1       13.4000   55.1380    1.7980 C.ar   95  TYR95      -0.0009
     88  CD2       11.9720   56.4380    0.3970 C.ar   95  TYR95      -0.0009
     89  CE1       12.5030   54.0820    1.7420 C.ar   95  TYR95       0.0417
     90  CE2       11.0740   55.3860    0.3370 C.ar   95  TYR95       0.0417
     91  CZ        11.3440   54.2160    1.0080 C.ar   95  TYR95       0.1957
     92  OH        10.4530   53.1720    0.9340 O.3    95  TYR95      -0.2866
     93  N          4.5210   51.4400   17.8060 N.3   124  LYS124     -0.1245
     94  CA         4.9470   51.8680   16.4630 C.3   124  LYS124      0.1561
     95  C          6.3750   52.4780   16.4560 C.2   124  LYS124      0.2260
     96  O          7.1510   52.2180   15.5460 O.2   124  LYS124     -0.2867
     97  CB         3.9280   52.8510   15.8780 C.3   124  LYS124      0.0271
     98  CG         2.6320   52.1830   15.4320 C.3   124  LYS124      0.0035
     99  CD         1.5430   53.1990   15.1340 C.3   124  LYS124      0.0206
    100  CE         0.2900   52.5440   14.5510 C.3   124  LYS124      0.1093
    101  NZ        -0.7570   53.5400   14.1240 N.3   124  LYS124     -0.1314
    102  N          8.4800   49.5740   16.6630 N.3   127  GLU127     -0.1231
    103  CA         8.3320   48.7940   15.4230 C.3   127  GLU127      0.1699
    104  C          9.1920   49.4000   14.3080 C.2   127  GLU127      0.2592
    105  O          9.9470   48.7080   13.6400 O.2   127  GLU127     -0.2718
    106  CB         6.8750   48.7850   14.9880 C.3   127  GLU127      0.0402
    107  CG         6.5030   47.5880   14.1550 C.3   127  GLU127      0.1161
    108  CD         5.0300   47.5780   13.8200 C.2   127  GLU127      0.3649
    109  OE1        4.2370   47.9810   14.7020 O.co2 127  GLU127     -0.2457
    110  OE2        4.6670   47.1680   12.6880 O.co2 127  GLU127     -0.2457
    111  N          9.0560   50.7080   14.1350 N.am  128  ALA128     -0.1980
    112  CA         9.8300   51.4270   13.1410 C.3   128  ALA128      0.1597
    113  C         11.3350   51.3120   13.4360 C.2   128  ALA128      0.2287
    114  O         12.1300   51.2280   12.5240 O.2   128  ALA128     -0.2864
    115  CB         9.4160   52.8900   13.1240 C.3   128  ALA128      0.0319
    116  N         12.4100   47.6700   12.3440 N.3   131  MET131     -0.1245
    117  CA        12.4870   47.5840   10.8930 C.3   131  MET131      0.1570
    118  C         13.7490   48.3120   10.3880 C.2   131  MET131      0.2261
    119  O         14.3420   47.9220    9.4060 O.2   131  MET131     -0.2867
    120  CB        11.2570   48.2190   10.2530 C.3   131  MET131      0.0387
    121  CG        11.2620   48.1320    8.7400 C.3   131  MET131      0.0595
    122  SD        10.6950   49.6490    7.9570 S.3   131  MET131     -0.1393
    123  CE        12.2610   50.3900    7.4430 C.3   131  MET131      0.0692
    124  N         17.2230   46.4810    8.5980 N.3   135  GLN135     -0.1245
    125  CA        17.8430   46.8730    7.3240 C.3   135  GLN135      0.1566
    126  C         19.3530   47.0740    7.4930 C.2   135  GLN135      0.2260
    127  O         20.0640   47.3750    6.5460 O.2   135  GLN135     -0.2867
    128  CB        17.2130   48.1660    6.7850 C.3   135  GLN135      0.0367
    129  CG        15.7230   48.0650    6.4880 C.3   135  GLN135      0.0905
    130  CD        15.1880   49.2890    5.7710 C.2   135  GLN135      0.2608
    131  OE1       15.4200   50.4240    6.1860 O.2   135  GLN135     -0.2717
    132  NE2       14.4580   49.0580    4.6890 N.am  135  GLN135     -0.0878
@<TRIPOS>BOND
     1    75    74    2
     2    79    80    1
     3    79    78    1
     4    84    83    2
     5    77    78    1
     6    77    76    1
     7    74    73    1
     8    74    81   am
     9    73    76    1
    10    73    72    1
    11    82    83    1
    12    82    81    1
    13    82    85    1
    14    90    88   ar
    15    90    91   ar
    16    88    86   ar
    17    92    91    1
    18    91    89   ar
    19    86    85    1
    20    86    87   ar
    21    89    87   ar
    22    65    64    1
    23    69    68    2
    24    63    64    1
    25    63    62    1
    26    68    67    1
    27    62    61    1
    28    71    70    1
    29    60    59    2
    30    61    58    1
    31    58    59    1
    32    58    57    1
    33   132   130   am
    34    70    67    1
    35    67    66    1
    36    47    46   ar
    37    48    46   ar
    38   130   131    2
    39   130   129    1
    40    46    45    1
    41    57    51   am
    42    52    51    2
    43    30    29    1
    44   129   128    1
    45   127   126    2
    46    51    50    1
    47    39    37   am
    48   128   125    1
    49    55    53    1
    50    35    34    2
    51    36    37    1
    52    36    33    1
    53    37    38    2
    54    43    42    2
    55   125   126    1
    56   125   124    1
    57    41    40    1
    58    41    44    1
    59    41    42    1
    60    45    44    1
    61   123   122    1
    62    34    40   am
    63    34    33    1
    64    29    31    1
    65    29    28    2
    66    53    50    1
    67    53    54    1
    68    27    28    1
    69    27    26    1
    70   122   121    1
    71    33    32    1
    72    50    49    1
    73    24    23    2
    74   121   120    1
    75    56    54    1
    76    26    25    1
    77    13    12    2
    78   119   118    2
    79    22    23    1
    80    22    25    1
    81    22    21    1
    82    12    21   am
    83    12    11    1
    84   120   117    1
    85    14    15    1
    86    14    11    1
    87   118   117    1
    88   117   116    1
    89    15    17   ar
    90    15    16   ar
    91    11    10    1
    92    17    19   ar
    93    16    18   ar
    94    19    20   ar
    95    18    20   ar
    96    10     3   am
    97   114   113    2
    98   110   108   ar
    99     4     3    2
   100     3     2    1
   101   115   112    1
   102   112   113    1
   103   112   111    1
   104   105   104    2
   105   108   107    1
   106   108   109   ar
   107     5     2    1
   108     5     6    1
   109   101   100    1
   110   111   104   am
   111   107   106    1
   112     2     1    1
   113   104   103    1
   114     7     6    1
   115     7     8    1
   116   100    99    1
   117   106   103    1
   118    99    98    1
   119     8     9    1
   120   103   102    1
   121    98    97    1
   122    96    95    2
   123    97    94    1
   124    95    94    1
   125    94    93    1
