@<TRIPOS>MOLECULE
tmp/1py2B00.pdb
 137 134 0 0 0
SMALL
GASTEIGER

@<TRIPOS>ATOM
      1  N         55.0750   54.2980   60.8820 N.3    29  PRO29      -0.2102
      2  CA        55.7190   54.3300   59.5610 C.3    29  PRO29       0.1504
      3  C         55.2910   53.1990   58.6250 C.2    29  PRO29       0.2575
      4  O         54.9900   53.4720   57.4620 O.2    29  PRO29      -0.2718
      5  CB        57.2150   54.2160   59.8910 C.3    29  PRO29       0.0282
      6  CG        57.3070   54.3790   61.3790 C.3    29  PRO29       0.0208
      7  CD        56.0200   53.8510   61.9220 C.3    29  PRO29       0.0893
      8  N         55.2590   51.9660   59.1280 N.am   30  LYS30      -0.1980
      9  CA        54.9340   50.7880   58.3190 C.3    30  LYS30       0.1596
     10  C         53.5100   50.8150   57.7670 C.2    30  LYS30       0.2287
     11  O         53.2600   50.3340   56.6600 O.2    30  LYS30      -0.2864
     12  CB        55.1590   49.5040   59.1210 C.3    30  LYS30       0.0298
     13  CG        55.4740   48.4780   58.5610 C.3    30  LYS30       0.0038
     14  CD        56.7480   47.9300   59.1760 C.3    30  LYS30       0.0206
     15  CE        57.2460   46.6980   58.4390 C.3    30  LYS30       0.1093
     16  NZ        58.6860   46.8130   58.0750 N.3    30  LYS30      -0.1314
     17  N         53.3220   53.4490   54.8350 N.3    33  ARG33      -0.1231
     18  CA        54.0330   52.9550   53.6570 C.3    33  ARG33       0.1694
     19  C         53.2540   51.8750   52.9080 C.2    33  ARG33       0.2591
     20  O         53.3650   51.7590   51.6880 O.2    33  ARG33      -0.2718
     21  CB        55.4000   52.3930   54.0530 C.3    33  ARG33       0.0321
     22  CG        56.5600   52.9570   53.2480 C.3    33  ARG33       0.0489
     23  CD        57.2470   51.8720   52.4350 C.3    33  ARG33       0.2205
     24  NE        58.0720   52.4280   51.3670 N.pl3  33  ARG33      -0.0865
     25  CZ        59.3840   52.2470   51.2650 C.cat  33  ARG33       0.5346
     26  NH1       60.0250   51.5200   52.1700 N.pl3  33  ARG33       0.1354
     27  NH2       60.0530   52.7920   50.2580 N.pl3  33  ARG33       0.1354
     28  N         52.4740   51.0900   53.6460 N.am   34  MET34      -0.1979
     29  CA        51.6840   50.0070   53.0650 C.3    34  MET34       0.1605
     30  C         50.4200   50.5190   52.3750 C.2    34  MET34       0.2287
     31  O         49.9110   49.8860   51.4460 O.2    34  MET34      -0.2864
     32  CB        51.3220   48.9780   54.1370 C.3    34  MET34       0.0413
     33  CG        50.9570   47.6040   53.5840 C.3    34  MET34       0.0598
     34  SD        49.9960   46.5560   54.7020 S.3    34  MET34      -0.1393
     35  CE        49.1170   47.7810   55.7050 C.3    34  MET34       0.0692
     36  N         50.1830   53.0230   50.5020 N.3    36  THR36      -0.1203
     37  CA        50.5210   53.5690   49.1870 C.3    36  THR36       0.1994
     38  C         50.2370   52.5540   48.0820 C.2    36  THR36       0.2618
     39  O         50.0730   52.9240   46.9180 O.2    36  THR36      -0.2717
     40  CB        52.0010   54.0170   49.1260 C.3    36  THR36       0.1784
     41  OG1       52.8550   52.9190   49.4730 O.3    36  THR36      -0.2211
     42  CG2       52.3020   55.0660   50.1940 C.3    36  THR36       0.0376
     43  N         50.1890   51.2780   48.4590 N.am   37  PHE37      -0.1961
     44  CA        49.8620   50.1900   47.5420 C.3    37  PHE37       0.1771
     45  C         48.3920   50.2670   47.1440 C.2    37  PHE37       0.2619
     46  O         47.5090   50.2930   48.0050 O.2    37  PHE37      -0.2715
     47  CB        50.1640   48.8360   48.1920 C.3    37  PHE37       0.0574
     48  CG        50.5350   47.7550   47.2130 C.ar   37  PHE37      -0.0200
     49  CD1       49.5500   47.0400   46.5360 C.ar   37  PHE37      -0.0042
     50  CD2       51.8690   47.4440   46.9760 C.ar   37  PHE37      -0.0042
     51  CE1       49.8900   46.0360   45.6300 C.ar   37  PHE37      -0.0003
     52  CE2       52.2200   46.4410   46.0730 C.ar   37  PHE37      -0.0003
     53  CZ        51.2290   45.7370   45.4000 C.ar   37  PHE37      -0.0000
     54  N         48.1440   50.3060   45.8370 N.am   38  LYS38      -0.1963
     55  CA        46.7970   50.4880   45.3000 C.3    38  LYS38       0.1728
     56  C         46.1700   49.1780   44.8230 C.2    38  LYS38       0.2616
     57  O         46.8710   48.2670   44.3740 O.2    38  LYS38      -0.2715
     58  CB        46.8150   51.5180   44.1650 C.3    38  LYS38       0.0311
     59  CG        46.1420   52.8410   44.5050 C.3    38  LYS38       0.0038
     60  CD        47.0560   53.7520   45.3210 C.3    38  LYS38       0.0206
     61  CE        46.3150   54.3810   46.4950 C.3    38  LYS38       0.1093
     62  NZ        45.9770   53.3860   47.5510 N.3    38  LYS38      -0.1314
     63  N         44.8450   49.1010   44.9230 N.am   39  PHE39      -0.1960
     64  CA        44.0920   47.9140   44.5290 C.3    39  PHE39       0.1771
     65  C         42.8850   48.2780   43.6740 C.2    39  PHE39       0.2619
     66  O         42.3180   49.3640   43.8130 O.2    39  PHE39      -0.2715
     67  CB        43.6230   47.1460   45.7670 C.3    39  PHE39       0.0574
     68  CG        44.6640   46.2360   46.3510 C.ar   39  PHE39      -0.0200
     69  CD1       44.7680   44.9140   45.9280 C.ar   39  PHE39      -0.0042
     70  CD2       45.5360   46.6960   47.3340 C.ar   39  PHE39      -0.0042
     71  CE1       45.7290   44.0640   46.4680 C.ar   39  PHE39      -0.0003
     72  CE2       46.5020   45.8530   47.8820 C.ar   39  PHE39      -0.0003
     73  CZ        46.5980   44.5340   47.4470 C.ar   39  PHE39      -0.0000
     74  N         42.5010   47.3610   42.7900 N.am   40  TYR40      -0.1974
     75  CA        41.2840   47.5070   42.0000 C.3    40  TYR40       0.1639
     76  C         40.1020   46.9000   42.7470 C.2    40  TYR40       0.2290
     77  O         40.2400   45.8800   43.4260 O.2    40  TYR40      -0.2864
     78  CB        41.4430   46.8510   40.6260 C.3    40  TYR40       0.0560
     79  CG        42.0870   47.7320   39.5710 C.ar   40  TYR40      -0.0198
     80  CD1       41.7220   49.0730   39.4270 C.ar   40  TYR40      -0.0009
     81  CD2       43.0560   47.2190   38.7090 C.ar   40  TYR40      -0.0009
     82  CE1       42.3110   49.8800   38.4560 C.ar   40  TYR40       0.0417
     83  CE2       43.6510   48.0180   37.7360 C.ar   40  TYR40       0.0417
     84  CZ        43.2740   49.3450   37.6150 C.ar   40  TYR40       0.1957
     85  OH        43.8590   50.1370   36.6530 O.3    40  TYR40      -0.2866
     86  N         43.2300   40.1250   41.5360 N.3    57  GLU57      -0.1245
     87  CA        43.9650   40.9820   42.4650 C.3    57  GLU57       0.1567
     88  C         44.7530   40.2130   43.5330 C.2    57  GLU57       0.2260
     89  O         45.2730   40.8100   44.4800 O.2    57  GLU57      -0.2867
     90  CB        43.0140   41.9930   43.1210 C.3    57  GLU57       0.0388
     91  CG        42.5920   43.1350   42.2090 C.3    57  GLU57       0.1160
     92  CD        43.7230   44.1030   41.9170 C.2    57  GLU57       0.3649
     93  OE1       43.9450   45.0190   42.7330 O.co2  57  GLU57      -0.2457
     94  OE2       44.3910   43.9480   40.8730 O.co2  57  GLU57      -0.2457
     95  N         48.7910   41.1320   43.1280 N.3    60  PRO60      -0.2116
     96  CA        49.1170   42.3260   43.9220 C.3    60  PRO60       0.1372
     97  C         49.0080   42.1250   45.4400 C.2    60  PRO60       0.2244
     98  O         49.8160   42.6980   46.1770 O.2    60  PRO60      -0.2868
     99  CB        48.0800   43.3500   43.4510 C.3    60  PRO60       0.0268
    100  CG        47.7250   42.9150   42.0800 C.3    60  PRO60       0.0207
    101  CD        47.7560   41.4190   42.1170 C.3    60  PRO60       0.0892
    102  N         52.1110   40.4740   46.5140 N.3    63  GLU63      -0.1231
    103  CA        53.2150   41.4280   46.3920 C.3    63  GLU63       0.1699
    104  C         53.3770   42.2910   47.6430 C.2    63  GLU63       0.2592
    105  O         54.4760   42.4070   48.1860 O.2    63  GLU63      -0.2718
    106  CB        53.0070   42.3320   45.1700 C.3    63  GLU63       0.0402
    107  CG        53.4510   41.7360   43.8440 C.3    63  GLU63       0.1161
    108  CD        53.0470   42.5950   42.6590 C.2    63  GLU63       0.3649
    109  OE1       53.7490   43.5900   42.3750 O.co2  63  GLU63      -0.2457
    110  OE2       52.0250   42.2790   42.0100 O.co2  63  GLU63      -0.2457
    111  N         52.2720   42.8850   48.0900 N.am   64  VAL64      -0.1980
    112  CA        52.2750   43.8130   49.2210 C.3    64  VAL64       0.1595
    113  C         52.5360   43.1230   50.5680 C.2    64  VAL64       0.2287
    114  O         53.1870   43.6920   51.4480 O.2    64  VAL64      -0.2864
    115  CB        50.9730   44.6770   49.2530 C.3    64  VAL64       0.0276
    116  CG1       49.7370   43.8250   49.5130 C.3    64  VAL64       0.0022
    117  CG2       51.0840   45.8120   50.2650 C.3    64  VAL64       0.0022
    118  N         56.1400   42.4530   50.9350 N.3    67  LEU67      -0.1231
    119  CA        56.8580   43.6880   51.2520 C.3    67  LEU67       0.1693
    120  C         56.7190   44.0890   52.7230 C.2    67  LEU67       0.2591
    121  O         57.5730   44.7990   53.2620 O.2    67  LEU67      -0.2718
    122  CB        56.3840   44.8370   50.3520 C.3    67  LEU67       0.0284
    123  CG        56.7560   44.8060   48.8650 C.3    67  LEU67       0.0019
    124  CD1       55.7700   45.6340   48.0560 C.3    67  LEU67       0.0001
    125  CD2       58.1830   45.2860   48.6280 C.3    67  LEU67       0.0001
    126  N         55.6440   43.6290   53.3640 N.am   68  ALA68      -0.1980
    127  CA        55.3530   43.9660   54.7580 C.3    68  ALA68       0.1597
    128  C         55.9500   42.9810   55.7710 C.2    68  ALA68       0.2287
    129  O         55.6850   43.0810   56.9740 O.2    68  ALA68      -0.2864
    130  CB        53.8470   44.1060   54.9640 C.3    68  ALA68       0.0319
    131  N         40.2260   53.5200   43.0440 N.3    95  THR95      -0.1218
    132  CA        41.2110   52.5610   43.5430 C.3    95  THR95       0.1862
    133  C         41.1950   52.5450   45.0730 C.2    95  THR95       0.2287
    134  O         40.6810   53.4730   45.7040 O.2    95  THR95      -0.2866
    135  CB        42.6260   52.8860   43.0070 C.3    95  THR95       0.1770
    136  OG1       42.8120   54.3060   42.9490 O.3    95  THR95      -0.2211
    137  CG2       42.7590   52.4550   41.5540 C.3    95  THR95       0.0375
@<TRIPOS>BOND
     1    85    84    1
     2    84    83   ar
     3    84    82   ar
     4    83    81   ar
     5    82    80   ar
     6    81    79   ar
     7    80    79   ar
     8    79    78    1
     9    78    75    1
    10    94    92   ar
    11    86    87    1
    12   137   135    1
    13    92    91    1
    14    92    93   ar
    15    75    76    1
    16    75    74    1
    17   110   108   ar
    18   100   101    1
    19   100    99    1
    20   101    95    1
    21    91    90    1
    22   109   108   ar
    23    87    90    1
    24    87    88    1
    25   108   107    1
    26    76    77    2
    27    74    65   am
    28   136   135    1
    29   135   132    1
    30   131   132    1
    31    95    96    1
    32    99    96    1
    33    88    89    2
    34   132   133    1
    35    65    66    2
    36    65    64    1
    37   107   106    1
    38    96    97    1
    39    58    59    1
    40    58    55    1
    41    57    56    2
    42    59    60    1
    43    64    63    1
    44    64    67    1
    45    56    63   am
    46    56    55    1
    47   133   134    2
    48   106   103    1
    49    55    54    1
    50    60    61    1
    51    53    51   ar
    52    53    52   ar
    53    97    98    2
    54    51    49   ar
    55    67    68    1
    56    54    45   am
    57    69    68   ar
    58    69    71   ar
    59    52    50   ar
    60    68    70   ar
    61   103   102    1
    62   103   104    1
    63    71    73   ar
    64    61    62    1
    65    49    48   ar
    66    39    38    2
    67    50    48   ar
    68    45    44    1
    69    45    46    2
    70    48    47    1
    71    70    72   ar
    72    73    72   ar
    73    44    47    1
    74    44    43    1
    75   104   111   am
    76   104   105    2
    77   124   123    1
    78    38    43   am
    79    38    37    1
    80   111   112    1
    81   125   123    1
    82   123   122    1
    83    40    37    1
    84    40    41    1
    85    40    42    1
    86    37    36    1
    87   112   115    1
    88   112   113    1
    89   115   116    1
    90   115   117    1
    91    27    25    1
    92   122   119    1
    93   113   114    2
    94   118   119    1
    95   119   120    1
    96    25    24    2
    97    25    26    1
    98    24    23    1
    99    31    30    2
   100    20    19    2
   101    30    29    1
   102    23    22    1
   103   120   121    2
   104   120   126   am
   105    19    28   am
   106    19    18    1
   107    29    28    1
   108    29    32    1
   109    22    21    1
   110   126   127    1
   111    33    32    1
   112    33    34    1
   113    18    21    1
   114    18    17    1
   115    34    35    1
   116   127   130    1
   117   127   128    1
   118   128   129    2
   119    11    10    2
   120     4     3    2
   121    10     9    1
   122    16    15    1
   123     9    12    1
   124     9     8    1
   125    15    14    1
   126    13    12    1
   127    13    14    1
   128     3     8   am
   129     3     2    1
   130     2     5    1
   131     2     1    1
   132     5     6    1
   133     1     7    1
   134     6     7    1
