@<TRIPOS>MOLECULE
tmp/1py5A00.pdb
 155 145 0 0 0
SMALL
GASTEIGER

@<TRIPOS>ATOM
      1  N         -3.6590   11.7690    3.1080 N.3    12  ILE12      -0.1231
      2  CA        -3.4600   10.3190    3.2420 C.3    12  ILE12       0.1692
      3  C         -3.4470    9.7720    4.6670 C.2    12  ILE12       0.2592
      4  O         -3.5570    8.5470    4.8760 O.2    12  ILE12      -0.2718
      5  CB        -2.1330    9.8490    2.6490 C.3    12  ILE12       0.0266
      6  CG1       -1.6430   10.8080    1.5700 C.3    12  ILE12       0.0019
      7  CG2       -2.3050    8.4450    2.1120 C.3    12  ILE12       0.0020
      8  CD1       -0.3110   10.3990    0.9540 C.3    12  ILE12       0.0001
      9  N         -3.2650   10.6390    5.6530 N.am   13  GLY13      -0.1957
     10  CA        -3.2520   10.1220    7.0040 C.3    13  GLY13       0.1869
     11  C         -2.7450   11.1380    7.9980 C.2    13  GLY13       0.2309
     12  O         -1.9640   12.0310    7.6380 O.2    13  GLY13      -0.2863
     13  N         -0.1110   13.8620    6.5230 N.3    20  VAL20      -0.1245
     14  CA         0.4460   13.6020    5.2170 C.3    20  VAL20       0.1561
     15  C         -0.5030   13.8580    4.0560 C.2    20  VAL20       0.2260
     16  O         -1.7080   13.6680    4.1840 O.2    20  VAL20      -0.2867
     17  CB         0.9270   12.1430    5.1750 C.3    20  VAL20       0.0252
     18  CG1        1.6510   11.8590    3.8840 C.3    20  VAL20       0.0019
     19  CG2        1.8260   11.8740    6.3530 C.3    20  VAL20       0.0019
     20  N          4.4990   11.5020   -1.5450 N.3    31  ALA31      -0.1245
     21  CA         3.9420   11.7660   -0.2360 C.3    31  ALA31       0.1562
     22  C          4.6430   13.0190    0.2860 C.2    31  ALA31       0.2260
     23  O          5.8300   13.2340    0.0330 O.2    31  ALA31      -0.2867
     24  CB         4.1770   10.5840    0.6760 C.3    31  ALA31       0.0290
     25  N          4.8290   15.4610    3.8810 N.3    33  LYS33      -0.1245
     26  CA         4.5480   15.6420    5.3040 C.3    33  LYS33       0.1561
     27  C          4.8730   17.0990    5.6060 C.2    33  LYS33       0.2260
     28  O          6.0240   17.5220    5.4750 O.2    33  LYS33      -0.2867
     29  CB         5.4590   14.7340    6.1270 C.3    33  LYS33       0.0271
     30  CG         5.1420   14.6090    7.6200 C.3    33  LYS33       0.0035
     31  CD         5.9510   13.4310    8.1700 C.3    33  LYS33       0.0206
     32  CE         5.8120   13.2250    9.6640 C.3    33  LYS33       0.1093
     33  NZ         6.7430   12.1250   10.1230 N.3    33  LYS33      -0.1314
     34  N         13.9900   15.0750   11.4120 N.3    46  GLU46      -0.1245
     35  CA        13.5800   14.0430   10.4760 C.3    46  GLU46       0.1567
     36  C         14.3160   14.2470    9.1330 C.2    46  GLU46       0.2260
     37  O         14.7640   13.2760    8.5070 O.2    46  GLU46      -0.2867
     38  CB        12.0600   14.0810   10.2900 C.3    46  GLU46       0.0388
     39  CG        11.4760   12.8130    9.6920 C.3    46  GLU46       0.1160
     40  CD         9.9560   12.7750    9.7600 C.2    46  GLU46       0.3649
     41  OE1        9.3780   13.2610   10.7570 O.co2  46  GLU46      -0.2457
     42  OE2        9.3300   12.2380    8.8250 O.co2  46  GLU46      -0.2457
     43  N         17.0120   11.3910    7.5390 N.3    50  TYR50      -0.1241
     44  CA        16.8200   10.9380    6.1730 C.3    50  TYR50       0.1605
     45  C         17.9700   11.3550    5.2390 C.2    50  TYR50       0.2264
     46  O         18.1480   10.7510    4.1880 O.2    50  TYR50      -0.2867
     47  CB        15.4830   11.4600    5.6220 C.3    50  TYR50       0.0534
     48  CG        14.2780   10.5700    5.8880 C.ar   50  TYR50      -0.0201
     49  CD1       14.1310    9.3510    5.2330 C.ar   50  TYR50      -0.0009
     50  CD2       13.2570   10.9780    6.7510 C.ar   50  TYR50      -0.0009
     51  CE1       12.9930    8.5590    5.4230 C.ar   50  TYR50       0.0417
     52  CE2       12.1270   10.1960    6.9560 C.ar   50  TYR50       0.0417
     53  CZ        12.0020    8.9880    6.2840 C.ar   50  TYR50       0.1957
     54  OH        10.8990    8.1990    6.4920 O.3    50  TYR50      -0.2866
     55  N         11.7250    3.9480    3.6870 N.3    61  LEU61      -0.1245
     56  CA        11.0560    4.9530    2.8810 C.3    61  LEU61       0.1561
     57  C         12.0550    5.8150    2.1090 C.2    61  LEU61       0.2260
     58  O         12.9320    6.4310    2.7040 O.2    61  LEU61      -0.2867
     59  CB        10.1680    5.8340    3.7700 C.3    61  LEU61       0.0270
     60  CG         9.5520    7.0290    3.0370 C.3    61  LEU61       0.0019
     61  CD1        8.6080    6.4690    1.9760 C.3    61  LEU61       0.0001
     62  CD2        8.8050    7.9490    3.9760 C.3    61  LEU61       0.0001
     63  N          8.4360   17.8390    3.8260 N.3    79  LEU79      -0.1245
     64  CA         9.2300   16.6270    3.8380 C.3    79  LEU79       0.1561
     65  C          8.5930   15.8640    2.6920 C.2    79  LEU79       0.2260
     66  O          7.4080   15.5530    2.7280 O.2    79  LEU79      -0.2867
     67  CB         9.0780   15.8900    5.1720 C.3    79  LEU79       0.0270
     68  CG        10.3770   15.3770    5.8230 C.3    79  LEU79       0.0019
     69  CD1       10.3250   15.5770    7.2930 C.3    79  LEU79       0.0001
     70  CD2       10.5510   13.8780    5.5590 C.3    79  LEU79       0.0001
     71  N          8.6480   12.5390    0.1600 N.3    81  SER81      -0.1202
     72  CA         9.1010   11.1540    0.0030 C.3    81  SER81       0.2020
     73  C          8.3290   10.4160   -1.0910 C.2    81  SER81       0.2619
     74  O          7.4520   10.9650   -1.7630 O.2    81  SER81      -0.2717
     75  CB         8.8520   10.3860    1.2920 C.3    81  SER81       0.2103
     76  OG         7.5040    9.9110    1.3260 O.3    81  SER81      -0.2182
     77  N          8.6410    9.1330   -1.2370 N.am   82  ASP82      -0.1959
     78  CA         7.9360    8.3030   -2.2010 C.3    82  ASP82       0.1840
     79  C          6.5290    8.1370   -1.6500 C.2    82  ASP82       0.2622
     80  O          6.2850    8.4210   -0.4790 O.2    82  ASP82      -0.2715
     81  CB         8.5960    6.9260   -2.3340 C.3    82  ASP82       0.1450
     82  CG         9.9440    6.9910   -3.0170 C.2    82  ASP82       0.3671
     83  OD1       10.1570    7.9300   -3.8220 O.co2  82  ASP82      -0.2456
     84  OD2       10.7700    6.0840   -2.7560 O.co2  82  ASP82      -0.2456
     85  N          5.6180    7.6720   -2.5010 N.am   83  TYR83      -0.1960
     86  CA         4.2290    7.4510   -2.1200 C.3    83  TYR83       0.1771
     87  C          3.8460    5.9780   -2.2410 C.2    83  TYR83       0.2620
     88  O          4.0250    5.3660   -3.2970 O.2    83  TYR83      -0.2715
     89  CB         3.2950    8.2600   -3.0100 C.3    83  TYR83       0.0574
     90  CG         1.8330    7.9080   -2.8130 C.ar   83  TYR83      -0.0198
     91  CD1        1.1610    8.2710   -1.6500 C.ar   83  TYR83      -0.0009
     92  CD2        1.1110    7.2540   -3.8150 C.ar   83  TYR83      -0.0009
     93  CE1       -0.2080    8.0030   -1.4890 C.ar   83  TYR83       0.0417
     94  CE2       -0.2390    6.9830   -3.6690 C.ar   83  TYR83       0.0417
     95  CZ        -0.9000    7.3650   -2.5080 C.ar   83  TYR83       0.1957
     96  OH        -2.2570    7.1400   -2.4160 O.3    83  TYR83      -0.2866
     97  N          3.3070    5.4260   -1.1610 N.am   84  HIS84      -0.1959
     98  CA         2.8800    4.0400   -1.1370 C.3    84  HIS84       0.1787
     99  C          1.3820    3.9520   -0.8620 C.2    84  HIS84       0.2620
    100  O          0.9420    4.0420    0.2830 O.2    84  HIS84      -0.2715
    101  CB         3.7000    3.2880   -0.0910 C.3    84  HIS84       0.0785
    102  CG         5.1710    3.3330   -0.3620 C.ar   84  HIS84       0.0821
    103  ND1        5.7260    2.8410   -1.5250 N.ar   84  HIS84      -0.2267
    104  CD2        6.1930    3.8710    0.3420 C.ar   84  HIS84       0.1154
    105  CE1        7.0240    3.0780   -1.5260 C.ar   84  HIS84       0.1986
    106  NE2        7.3330    3.7030   -0.4040 N.ar   84  HIS84      -0.2212
    107  N          0.6090    3.7740   -1.9280 N.am   85  GLU85      -0.1977
    108  CA        -0.8360    3.7020   -1.8150 C.3    85  GLU85       0.1602
    109  C         -1.3870    2.9290   -0.6210 C.2    85  GLU85       0.2287
    110  O         -2.1810    3.4710    0.1390 O.2    85  GLU85      -0.2864
    111  CB        -1.4480    3.1530   -3.0960 C.3    85  GLU85       0.0415
    112  CG        -2.9430    3.2540   -3.1010 C.3    85  GLU85       0.1163
    113  CD        -3.5070    3.0960   -4.4910 C.2    85  GLU85       0.3649
    114  OE1       -3.0940    2.1420   -5.1890 O.co2  85  GLU85      -0.2457
    115  OE2       -4.3590    3.9230   -4.8870 O.co2  85  GLU85      -0.2457
    116  N         -0.4660    2.5120    2.1720 N.3    87  GLY87      -0.1210
    117  CA        -0.3460    3.1920    3.4470 C.3    87  GLY87       0.1956
    118  C          0.4260    2.3770    4.4810 C.2    87  GLY87       0.2612
    119  O          1.2780    1.5330    4.1330 O.2    87  GLY87      -0.2717
    120  N          0.1250    2.6190    5.7570 N.am   88  SER88      -0.1952
    121  CA         0.8040    1.9300    6.8510 C.3    88  SER88       0.1924
    122  C          0.4540    0.4510    6.9050 C.2    88  SER88       0.2314
    123  O         -0.5680    0.0190    6.3650 O.2    88  SER88      -0.2863
    124  CB         0.4720    2.5880    8.2120 C.3    88  SER88       0.2116
    125  OG        -0.8260    2.2490    8.6830 O.3    88  SER88      -0.2180
    126  N          2.1310    1.3260   12.6740 N.3   138  LYS138     -0.1245
    127  CA         1.7940    2.5900   12.0280 C.3   138  LYS138      0.1561
    128  C          2.9640    3.3100   11.3740 C.2   138  LYS138      0.2260
    129  O          2.7580    4.1590   10.5030 O.2   138  LYS138     -0.2867
    130  CB         1.1110    3.5280   13.0250 C.3   138  LYS138      0.0271
    131  CG        -0.2340    3.0130   13.4800 C.3   138  LYS138      0.0035
    132  CD        -0.9530    4.0120   14.3440 C.3   138  LYS138      0.0206
    133  CE        -2.3250    3.4850   14.7350 C.3   138  LYS138      0.1093
    134  NZ        -2.2100    2.1770   15.4710 N.3   138  LYS138     -0.1314
    135  N          5.4120    1.0950    6.2650 N.3   141  LEU141     -0.1245
    136  CA         4.5760    1.1870    5.0820 C.3   141  LEU141      0.1561
    137  C          4.7000   -0.0220    4.2040 C.2   141  LEU141      0.2260
    138  O          5.7750   -0.5850    4.0620 O.2   141  LEU141     -0.2867
    139  CB         5.0050    2.3760    4.2650 C.3   141  LEU141      0.0270
    140  CG         4.9460    3.6890    5.0190 C.3   141  LEU141      0.0019
    141  CD1        5.7930    4.6170    4.1860 C.3   141  LEU141      0.0001
    142  CD2        3.5090    4.2620    5.1800 C.3   141  LEU141      0.0001
    143  N          9.4410    3.8340    8.1550 N.3   151  ALA151     -0.1231
    144  CA         9.1470    5.2530    7.9860 C.3   151  ALA151      0.1694
    145  C          9.1200    5.9690    9.3180 C.2   151  ALA151      0.2592
    146  O          9.4580    5.3790   10.3320 O.2   151  ALA151     -0.2718
    147  CB         7.8220    5.4060    7.2630 C.3   151  ALA151      0.0304
    148  N          8.7880    7.2540    9.3200 N.am  152  ASP152     -0.1974
    149  CA         8.7320    7.9970   10.5600 C.3   152  ASP152      0.1709
    150  C         10.0080    7.8380   11.3660 C.2   152  ASP152      0.2293
    151  O         10.0010    7.3450   12.4890 O.2   152  ASP152     -0.2864
    152  CB         7.5190    7.5180   11.3140 C.3   152  ASP152      0.1436
    153  CG         6.2570    7.9010   10.6070 C.2   152  ASP152      0.3671
    154  OD1        5.8910    9.0970   10.7370 O.co2 152  ASP152     -0.2456
    155  OD2        5.6820    7.0190    9.9240 O.co2 152  ASP152     -0.2456
@<TRIPOS>BOND
     1   114   113   ar
     2   115   113   ar
     3   113   112    1
     4    83    82   ar
     5    92    94   ar
     6    92    90   ar
     7    94    95   ar
     8    88    87    2
     9   112   111    1
    10   111   108    1
    11    82    84   ar
    12    82    81    1
    13    89    90    1
    14    89    86    1
    15    90    91   ar
    16    95    96    1
    17    95    93   ar
    18    85    86    1
    19    85    79   am
    20    81    78    1
    21    87    86    1
    22    87    97   am
    23    78    79    1
    24    78    77    1
    25   107   108    1
    26   107    99   am
    27   108   109    1
    28    74    73    2
    29    79    80    2
    30    91    93   ar
    31    20    21    1
    32   105   103   ar
    33   105   106   ar
    34   103   102   ar
    35    77    73   am
    36    97    98    1
    37    98    99    1
    38    98   101    1
    39    73    72    1
    40    99   100    2
    41   109   110    2
    42   106   104   ar
    43   102   101    1
    44   102   104   ar
    45    21    22    1
    46    21    24    1
    47    72    71    1
    48    72    75    1
    49    23    22    2
    50     8     6    1
    51    75    76    1
    52     6     5    1
    53    61    60    1
    54    57    58    2
    55    57    56    1
    56     7     5    1
    57   116   117    1
    58     5     2    1
    59    65    66    2
    60    65    64    1
    61    56    55    1
    62    56    59    1
    63    60    59    1
    64    60    62    1
    65     1     2    1
    66     2     3    1
    67   117   118    1
    68    63    64    1
    69    64    67    1
    70    25    26    1
    71    18    17    1
    72    15    16    2
    73    15    14    1
    74   138   137    2
    75   119   118    2
    76   141   140    1
    77    46    45    2
    78   137   136    1
    79   139   140    1
    80   139   136    1
    81   118   120   am
    82     3     4    2
    83     3     9   am
    84   140   142    1
    85   136   135    1
    86    67    68    1
    87    17    14    1
    88    17    19    1
    89    14    13    1
    90    49    51   ar
    91    49    48   ar
    92    45    44    1
    93    26    27    1
    94    26    29    1
    95    51    53   ar
    96    28    27    2
    97    70    68    1
    98    47    48    1
    99    47    44    1
   100     9    10    1
   101   120   121    1
   102    68    69    1
   103    48    50   ar
   104    29    30    1
   105    44    43    1
   106    53    54    1
   107    53    52   ar
   108   123   122    2
   109    50    52   ar
   110   121   122    1
   111   121   124    1
   112    10    11    1
   113   147   144    1
   114    30    31    1
   115    12    11    2
   116   144   143    1
   117   144   145    1
   118    31    32    1
   119   124   125    1
   120    37    36    2
   121    42    40   ar
   122    36    35    1
   123   145   148   am
   124   145   146    2
   125   148   149    1
   126    32    33    1
   127    39    40    1
   128    39    38    1
   129    40    41   ar
   130   155   153   ar
   131    38    35    1
   132    35    34    1
   133   129   128    2
   134   149   152    1
   135   149   150    1
   136   153   154   ar
   137   153   152    1
   138   150   151    2
   139   128   127    1
   140   127   126    1
   141   127   130    1
   142   130   131    1
   143   131   132    1
   144   132   133    1
   145   133   134    1
