@<TRIPOS>MOLECULE
tmp/1pyeA00.pdb
 153 147 0 0 0
SMALL
GASTEIGER

@<TRIPOS>ATOM
      1  N         12.4790  -15.0870   30.4140 N.3    10  ILE10      -0.1231
      2  CA        13.6500  -14.2310   30.3090 C.3    10  ILE10       0.1692
      3  C         13.4640  -12.7930   30.7460 C.2    10  ILE10       0.2593
      4  O         14.3560  -11.9690   30.5560 O.2    10  ILE10      -0.2718
      5  CB        14.2270  -14.2560   28.8780 C.3    10  ILE10       0.0266
      6  CG1       13.1990  -13.7210   27.8820 C.3    10  ILE10       0.0019
      7  CG2       14.6370  -15.6820   28.5070 C.3    10  ILE10       0.0020
      8  CD1       13.6840  -13.7260   26.4430 C.3    10  ILE10       0.0001
      9  N         12.3100  -12.4790   31.3260 N.am   11  GLY11      -0.1942
     10  CA        12.0850  -11.1180   31.7830 C.3    11  GLY11       0.2014
     11  C         10.6290  -10.7400   31.9610 C.2    11  GLY11       0.2638
     12  O          9.8070  -10.9630   31.0720 O.2    11  GLY11      -0.2714
     13  N         10.3070  -10.1550   33.1140 N.am   12  GLU12      -0.1977
     14  CA         8.9440   -9.7360   33.4230 C.3    12  GLU12       0.1602
     15  C          8.6310   -8.4370   32.6910 C.2    12  GLU12       0.2287
     16  O          9.5430   -7.7390   32.2420 O.2    12  GLU12      -0.2864
     17  CB         8.7730   -9.5330   34.9310 C.3    12  GLU12       0.0415
     18  CG         8.9540  -10.7950   35.7660 C.3    12  GLU12       0.1163
     19  CD         7.9340  -11.8640   35.4240 C.2    12  GLU12       0.3649
     20  OE1        7.9200  -12.3380   34.2660 O.co2  12  GLU12      -0.2457
     21  OE2        7.1370  -12.2320   36.3110 O.co2  12  GLU12      -0.2457
     22  N          8.1360  -11.9740   29.3340 N.3    15  VAL15      -0.1245
     23  CA         8.7880  -12.4500   28.1250 C.3    15  VAL15       0.1561
     24  C          9.4580  -13.7830   28.3920 C.2    15  VAL15       0.2260
     25  O         10.2780  -13.9130   29.2970 O.2    15  VAL15      -0.2867
     26  CB         9.8450  -11.4660   27.6290 C.3    15  VAL15       0.0252
     27  CG1       10.5570  -12.0530   26.4160 C.3    15  VAL15       0.0019
     28  CG2        9.1880  -10.1440   27.2790 C.3    15  VAL15       0.0019
     29  N         11.0750  -15.3300   21.0860 N.3    28  ALA28      -0.1245
     30  CA        10.8580  -14.6020   22.3200 C.3    28  ALA28       0.1562
     31  C          9.3560  -14.4450   22.2820 C.2    28  ALA28       0.2260
     32  O          8.7940  -13.9760   21.2880 O.2    28  ALA28      -0.2867
     33  CB        11.5240  -13.2390   22.2770 C.3    28  ALA28       0.0290
     34  N          6.1280  -12.7350   24.0920 N.3    30  LYS30      -0.1245
     35  CA         5.6790  -11.7230   25.0350 C.3    30  LYS30       0.1561
     36  C          4.1940  -11.8660   25.3420 C.2    30  LYS30       0.2260
     37  O          3.3430  -11.7800   24.4500 O.2    30  LYS30      -0.2867
     38  CB         5.9660  -10.3260   24.4780 C.3    30  LYS30       0.0271
     39  CG         5.5080   -9.1880   25.3710 C.3    30  LYS30       0.0035
     40  CD         5.7850   -7.8470   24.7050 C.3    30  LYS30       0.0206
     41  CE         5.3630   -6.6800   25.5890 C.3    30  LYS30       0.1093
     42  NZ         5.9550   -6.7850   26.9750 N.3    30  LYS30      -0.1314
     43  N         13.6370   -5.5230   15.7890 N.3    50  VAL50      -0.1245
     44  CA        13.3880   -6.9160   16.1410 C.3    50  VAL50       0.1561
     45  C         12.1150   -7.3390   15.4260 C.2    50  VAL50       0.2260
     46  O         11.0590   -6.7030   15.5660 O.2    50  VAL50      -0.2867
     47  CB        13.2280   -7.1170   17.6770 C.3    50  VAL50       0.0252
     48  CG1       12.8910   -8.5640   17.9790 C.3    50  VAL50       0.0019
     49  CG2       14.5220   -6.7450   18.3820 C.3    50  VAL50       0.0019
     50  N          8.2430  -12.8020   18.8210 N.3    64  PHE64      -0.1227
     51  CA         9.3480  -12.0440   18.2470 C.3    64  PHE64       0.1736
     52  C         10.5520  -12.9210   17.9470 C.2    64  PHE64       0.2595
     53  O         10.7040  -14.0130   18.5010 O.2    64  PHE64      -0.2718
     54  CB         9.8220  -10.9650   19.2330 C.3    64  PHE64       0.0547
     55  CG         8.8970   -9.8000   19.3740 C.ar   64  PHE64      -0.0202
     56  CD1        8.8480   -8.8120   18.4060 C.ar   64  PHE64      -0.0042
     57  CD2        8.1050   -9.6700   20.4970 C.ar   64  PHE64      -0.0042
     58  CE1        8.0300   -7.7030   18.5530 C.ar   64  PHE64      -0.0003
     59  CE2        7.2780   -8.5670   20.6620 C.ar   64  PHE64      -0.0003
     60  CZ         7.2400   -7.5760   19.6880 C.ar   64  PHE64      -0.0000
     61  N         11.4110  -12.4160   17.0670 N.am   65  GLU65      -0.1965
     62  CA        12.6410  -13.1160   16.7480 C.3    65  GLU65       0.1733
     63  C         13.4180  -13.0140   18.0630 C.2    65  GLU65       0.2616
     64  O         13.2910  -12.0310   18.7920 O.2    65  GLU65      -0.2715
     65  CB        13.4140  -12.4190   15.6080 C.3    65  GLU65       0.0429
     66  CG        14.0270  -11.0770   15.9530 C.3    65  GLU65       0.1163
     67  CD        14.9810  -10.5790   14.8880 C.2    65  GLU65       0.3649
     68  OE1       15.9190  -11.3180   14.5420 O.co2  65  GLU65      -0.2457
     69  OE2       14.7990   -9.4600   14.3940 O.co2  65  GLU65      -0.2457
     70  N         14.2140  -14.0240   18.3620 N.am   66  PHE66      -0.1960
     71  CA        14.9890  -14.0660   19.5930 C.3    66  PHE66       0.1771
     72  C         16.4430  -13.6020   19.4710 C.2    66  PHE66       0.2619
     73  O         17.1940  -14.1130   18.6320 O.2    66  PHE66      -0.2715
     74  CB        14.9720  -15.4960   20.1090 C.3    66  PHE66       0.0574
     75  CG        15.8040  -15.7130   21.3370 C.ar   66  PHE66      -0.0200
     76  CD1       15.3010  -15.4120   22.6000 C.ar   66  PHE66      -0.0042
     77  CD2       17.1080  -16.2090   21.2370 C.ar   66  PHE66      -0.0042
     78  CE1       16.0750  -15.5950   23.7440 C.ar   66  PHE66      -0.0003
     79  CE2       17.8880  -16.3980   22.3700 C.ar   66  PHE66      -0.0003
     80  CZ        17.3720  -16.0890   23.6320 C.ar   66  PHE66      -0.0000
     81  N         16.8310  -12.6280   20.2970 N.am   67  LEU67      -0.1963
     82  CA        18.2090  -12.1600   20.3180 C.3    67  LEU67       0.1728
     83  C         18.7090  -12.5310   21.6990 C.2    67  LEU67       0.2616
     84  O         17.9530  -12.5180   22.6530 O.2    67  LEU67      -0.2715
     85  CB        18.3210  -10.6540   20.0730 C.3    67  LEU67       0.0311
     86  CG        18.1540  -10.3010   18.6000 C.3    67  LEU67       0.0022
     87  CD1       16.6960  -10.1390   18.3350 C.3    67  LEU67       0.0001
     88  CD2       18.9300   -9.0320   18.2400 C.3    67  LEU67       0.0001
     89  N         19.9890  -12.8360   21.8200 N.am   68  HIS68      -0.1959
     90  CA        20.5400  -13.2830   23.0820 C.3    68  HIS68       0.1787
     91  C         20.8690  -12.3030   24.1790 C.2    68  HIS68       0.2620
     92  O         21.1620  -12.7180   25.3020 O.2    68  HIS68      -0.2715
     93  CB        21.7980  -14.0890   22.8160 C.3    68  HIS68       0.0785
     94  CG        21.5360  -15.4090   22.1720 C.ar   68  HIS68       0.0821
     95  ND1       21.1470  -15.5360   20.8550 N.ar   68  HIS68      -0.2267
     96  CD2       21.6010  -16.6650   22.6710 C.ar   68  HIS68       0.1154
     97  CE1       20.9870  -16.8180   20.5710 C.ar   68  HIS68       0.1986
     98  NE2       21.2550  -17.5210   21.6560 N.ar   68  HIS68      -0.2212
     99  N         20.8280  -11.0160   23.8860 N.am   69  GLN69      -0.1963
    100  CA        21.1960  -10.0730   24.9260 C.3    69  GLN69       0.1733
    101  C         20.7510   -8.6510   24.6210 C.2    69  GLN69       0.2616
    102  O         20.6650   -8.2520   23.4610 O.2    69  GLN69      -0.2715
    103  CB        22.7150  -10.1420   25.0690 C.3    69  GLN69       0.0408
    104  CG        23.3220   -9.4770   26.2860 C.3    69  GLN69       0.0908
    105  CD        24.7890   -9.7960   26.4030 C.2    69  GLN69       0.2608
    106  OE1       25.1920  -10.9540   26.4830 O.2    69  GLN69      -0.2717
    107  NE2       25.6050   -8.7550   26.4100 N.am   69  GLN69      -0.0878
    108  N         20.4920   -7.8800   25.6660 N.am   70  ASP70      -0.1971
    109  CA        20.1110   -6.4820   25.4800 C.3    70  ASP70       0.1709
    110  C         21.3220   -5.6240   25.7990 C.2    70  ASP70       0.2293
    111  O         22.3190   -6.1140   26.3480 O.2    70  ASP70      -0.2864
    112  CB        18.9270   -6.0990   26.3700 C.3    70  ASP70       0.1436
    113  CG        19.1760   -6.3570   27.8420 C.2    70  ASP70       0.3671
    114  OD1       19.0890   -7.5180   28.2630 O.co2  70  ASP70      -0.2456
    115  OD2       19.4530   -5.3920   28.5820 O.co2  70  ASP70      -0.2456
    116  N         17.5290   -1.4830   27.9170 N.3   115  GLN115     -0.1231
    117  CA        16.8740   -2.7910   28.0120 C.3   115  GLN115      0.1698
    118  C         16.0320   -3.1790   26.7920 C.2   115  GLN115      0.2592
    119  O         15.7110   -4.3560   26.6080 O.2   115  GLN115     -0.2718
    120  CB        15.9990   -2.8690   29.2700 C.3   115  GLN115      0.0381
    121  CG        15.1530   -1.6570   29.5180 C.3   115  GLN115      0.0905
    122  CD        15.7790   -0.6560   30.4790 C.2   115  GLN115      0.2608
    123  OE1       16.9540   -0.2680   30.3070 O.2   115  GLN115     -0.2717
    124  NE2       14.9920   -0.2070   31.4840 N.am  115  GLN115     -0.0878
    125  N         15.6640   -2.1990   25.9690 N.am  116  ASN116     -0.1974
    126  CA        14.8720   -2.4900   24.7620 C.3   116  ASN116      0.1688
    127  C         15.7100   -2.5530   23.4850 C.2   116  ASN116      0.2292
    128  O         15.1500   -2.6100   22.3820 O.2   116  ASN116     -0.2864
    129  CB        13.8030   -1.4250   24.4820 C.3   116  ASN116      0.1181
    130  CG        12.7150   -1.3700   25.5210 C.2   116  ASN116      0.2629
    131  OD1       12.3280   -2.3930   26.0780 O.2   116  ASN116     -0.2716
    132  ND2       12.1930   -0.1760   25.7710 N.am  116  ASN116     -0.0877
    133  N         18.3620   -4.7800   21.5260 N.3   118  LEU118     -0.1245
    134  CA        18.9610   -6.1030   21.5770 C.3   118  LEU118      0.1561
    135  C         20.0870   -6.2540   20.5680 C.2   118  LEU118      0.2260
    136  O         20.0150   -5.7280   19.4510 O.2   118  LEU118     -0.2867
    137  CB        17.8780   -7.1450   21.3370 C.3   118  LEU118      0.0270
    138  CG        16.6020   -6.9360   22.1680 C.3   118  LEU118      0.0019
    139  CD1       15.5060   -7.8190   21.6070 C.3   118  LEU118      0.0001
    140  CD2       16.8560   -7.2340   23.6610 C.3   118  LEU118      0.0001
    141  N         13.5340   -2.9930   20.0110 N.3   128  ALA128     -0.1231
    142  CA        12.5110   -3.9520   20.4120 C.3   128  ALA128      0.1694
    143  C         11.4350   -3.2720   21.2650 C.2   128  ALA128      0.2592
    144  O         11.6170   -2.1470   21.7390 O.2   128  ALA128     -0.2718
    145  CB        13.1450   -5.0860   21.2230 C.3   128  ALA128      0.0304
    146  N         10.3170   -3.9720   21.4340 N.am  129  ASP129     -0.1974
    147  CA         9.2290   -3.5020   22.2970 C.3   129  ASP129      0.1709
    148  C          8.8160   -2.0580   22.0790 C.2   129  ASP129      0.2293
    149  O          8.9600   -1.2280   22.9760 O.2   129  ASP129     -0.2864
    150  CB         9.6460   -3.6650   23.7620 C.3   129  ASP129      0.1436
    151  CG         8.4720   -3.6630   24.7190 C.2   129  ASP129      0.3671
    152  OD1        8.6820   -3.3520   25.9070 O.co2 129  ASP129     -0.2456
    153  OD2        7.3420   -3.9850   24.2770 O.co2 129  ASP129     -0.2456
@<TRIPOS>BOND
     1    69    67   ar
     2    68    67   ar
     3    67    66    1
     4    45    46    2
     5    45    44    1
     6    65    66    1
     7    65    62    1
     8    43    44    1
     9    44    47    1
    10    62    61    1
    11    62    63    1
    12    61    52   am
    13    47    48    1
    14    47    49    1
    15    52    51    1
    16    52    53    2
    17    63    70   am
    18    63    64    2
    19    88    86    1
    20    51    50    1
    21    51    54    1
    22    87    86    1
    23    70    71    1
    24    56    58   ar
    25    56    55   ar
    26    58    60   ar
    27    86    85    1
    28    73    72    2
    29    54    55    1
    30    55    57   ar
    31   136   135    2
    32    72    71    1
    33    72    81   am
    34    71    74    1
    35    60    59   ar
    36   141   142    1
    37    85    82    1
    38    74    75    1
    39    81    82    1
    40    82    83    1
    41   142   145    1
    42   142   143    1
    43    57    59   ar
    44   135   134    1
    45    97    95   ar
    46    97    98   ar
    47    95    94   ar
    48    29    30    1
    49    77    75   ar
    50    77    79   ar
    51   143   146   am
    52   143   144    2
    53    32    31    2
    54   137   134    1
    55   137   138    1
    56    75    76   ar
    57   146   147    1
    58   133   134    1
    59   139   138    1
    60    98    96   ar
    61    83    89   am
    62    83    84    2
    63    89    90    1
    64   148   147    1
    65   148   149    2
    66   138   140    1
    67    94    96   ar
    68    94    93    1
    69    33    30    1
    70    31    30    1
    71   147   150    1
    72    79    80   ar
    73   128   127    2
    74    76    78   ar
    75    93    90    1
    76    90    91    1
    77   102   101    2
    78   127   126    1
    79    80    78   ar
    80   150   151    1
    81    99    91   am
    82    99   100    1
    83    34    35    1
    84    91    92    2
    85   153   151   ar
    86    37    36    2
    87    38    35    1
    88    38    39    1
    89   129   126    1
    90   129   130    1
    91   101   100    1
    92   101   108   am
    93    40    39    1
    94    40    41    1
    95   151   152   ar
    96   126   125    1
    97   100   103    1
    98    35    36    1
    99   103   104    1
   100   109   108    1
   101   109   110    1
   102   109   112    1
   103   130   132   am
   104   130   131    2
   105    41    42    1
   106   110   111    2
   107   125   118   am
   108   104   105    1
   109   112   113    1
   110   105   107   am
   111   105   106    2
   112    27    26    1
   113     8     6    1
   114   119   118    2
   115   118   117    1
   116    28    26    1
   117    26    23    1
   118   113   114   ar
   119   113   115   ar
   120     6     5    1
   121   116   117    1
   122   117   120    1
   123    23    24    1
   124    23    22    1
   125    24    25    2
   126     7     5    1
   127     5     2    1
   128   120   121    1
   129   121   122    1
   130   123   122    2
   131     2     1    1
   132     2     3    1
   133   122   124   am
   134     4     3    2
   135     3     9   am
   136    12    11    2
   137     9    10    1
   138    10    11    1
   139    11    13   am
   140    16    15    2
   141    15    14    1
   142    13    14    1
   143    14    17    1
   144    20    19   ar
   145    17    18    1
   146    19    18    1
   147    19    21   ar
