@<TRIPOS>MOLECULE
tmp/1pygB02.pdb
 163 156 0 0 0
SMALL
GASTEIGER

@<TRIPOS>ATOM
      1  N         75.6440   44.0180   14.9150 N.3    71  TYR71      -0.1241
      2  CA        74.5490   43.0900   14.5990 C.3    71  TYR71       0.1605
      3  C         75.0620   41.7170   14.9100 C.2    71  TYR71       0.2264
      4  O         75.3380   40.9150   14.0340 O.2    71  TYR71      -0.2867
      5  CB        74.2120   43.1810   13.1250 C.3    71  TYR71       0.0534
      6  CG        72.7840   42.9560   12.6480 C.ar   71  TYR71      -0.0201
      7  CD1       71.7950   42.4840   13.4740 C.ar   71  TYR71      -0.0009
      8  CD2       72.4930   43.2910   11.3520 C.ar   71  TYR71      -0.0009
      9  CE1       70.5180   42.3590   12.9920 C.ar   71  TYR71       0.0417
     10  CE2       71.2250   43.1680   10.8830 C.ar   71  TYR71       0.0417
     11  CZ        70.2520   42.7030   11.7060 C.ar   71  TYR71       0.1957
     12  OH        68.9710   42.5780   11.2300 O.3    71  TYR71      -0.2866
     13  N         71.0800   46.8170   11.0180 N.3   115  GLY115     -0.1210
     14  CA        71.3020   46.2940    9.6610 C.3   115  GLY115      0.1956
     15  C         72.7460   46.1660    9.1960 C.2   115  GLY115      0.2612
     16  O         73.6220   45.8900   10.0130 O.2   115  GLY115     -0.2717
     17  N         73.0550   46.4110    7.9190 N.am  116  GLY116     -0.1956
     18  CA        74.4040   46.2600    7.3550 C.3   116  GLY116      0.1869
     19  C         75.5670   46.8900    8.1320 C.2   116  GLY116      0.2309
     20  O         76.6050   46.2560    8.3140 O.2   116  GLY116     -0.2863
     21  N         76.0590   44.6420   11.0350 N.3   119  ARG119     -0.1245
     22  CA        76.6850   43.3770   10.6590 C.3   119  ARG119      0.1563
     23  C         78.1370   43.5940   10.1870 C.2   119  ARG119      0.2260
     24  O         78.9720   42.6800   10.3020 O.2   119  ARG119     -0.2867
     25  CB        75.8820   42.7250    9.5430 C.3   119  ARG119      0.0307
     26  CG        75.7050   41.2180    9.6260 C.3   119  ARG119      0.0489
     27  CD        76.9240   40.3420    9.8990 C.3   119  ARG119      0.2205
     28  NE        76.7840   39.8590   11.2570 N.pl3 119  ARG119     -0.0865
     29  CZ        77.6310   39.0380   11.8710 C.cat 119  ARG119      0.5346
     30  NH1       78.7400   38.5590   11.3220 N.pl3 119  ARG119      0.1354
     31  NH2       77.3400   38.6880   13.1090 N.pl3 119  ARG119      0.1354
     32  N         79.6750   33.2390    8.0370 N.3   446  TRP446     -0.1241
     33  CA        79.0790   33.1950    6.7180 C.3   446  TRP446      0.1605
     34  C         79.4560   32.0880    5.7650 C.2   446  TRP446      0.2264
     35  O         79.0490   32.1110    4.6050 O.2   446  TRP446     -0.2867
     36  CB        79.2900   34.5530    6.0750 C.3   446  TRP446      0.0550
     37  CG        78.5510   35.6040    6.8980 C.ar  446  TRP446      0.0003
     38  CD1       79.2230   36.6820    7.4020 C.ar  446  TRP446      0.0946
     39  CD2       77.2190   35.5910    7.2640 C.ar  446  TRP446      0.0152
     40  NE1       78.3270   37.3460    8.0880 N.ar  446  TRP446     -0.2442
     41  CE2       77.1350   36.7300    8.0290 C.ar  446  TRP446      0.0810
     42  CE3       76.1000   34.8080    7.0770 C.ar  446  TRP446      0.0012
     43  CZ2       75.9510   37.1050    8.6150 C.ar  446  TRP446      0.0191
     44  CZ3       74.9170   35.1750    7.6540 C.ar  446  TRP446      0.0001
     45  CH2       74.8430   36.3150    8.4190 C.ar  446  TRP446      0.0015
     46  N         66.6030   39.2710    0.1240 N.3   522  VAL522     -0.1231
     47  CA        66.3790   39.6800    1.4990 C.3   522  VAL522      0.1692
     48  C         67.1420   40.9740    1.7170 C.2   522  VAL522      0.2592
     49  O         68.3630   41.0190    1.7320 O.2   522  VAL522     -0.2718
     50  CB        66.8230   38.5430    2.4510 C.3   522  VAL522      0.0266
     51  CG1       65.7820   37.4270    2.3860 C.3   522  VAL522      0.0020
     52  CG2       68.1480   37.9130    2.0370 C.3   522  VAL522      0.0020
     53  N         66.4420   42.0900    1.7950 N.am  523  LYS523     -0.1966
     54  CA        66.9860   43.4350    1.9150 C.3   523  LYS523      0.1728
     55  C         65.8980   44.2070    2.6740 C.2   523  LYS523      0.2616
     56  O         64.7970   43.6950    2.9210 O.2   523  LYS523     -0.2715
     57  CB        67.1540   44.1380    0.5650 C.3   523  LYS523      0.0311
     58  CG        68.2080   43.6710   -0.4080 C.3   523  LYS523      0.0038
     59  CD        69.4500   44.5480   -0.2770 C.3   523  LYS523      0.0206
     60  CE        70.5990   43.8930   -1.0560 C.3   523  LYS523      0.1093
     61  NZ        71.7530   44.7520   -1.3110 N.3   523  LYS523     -0.1314
     62  N         66.2200   45.4430    3.0950 N.am  524  ARG524     -0.1977
     63  CA        65.2880   46.3770    3.7170 C.3   524  ARG524      0.1597
     64  C         64.1510   46.5870    2.7400 C.2   524  ARG524      0.2287
     65  O         64.4290   46.9070    1.5780 O.2   524  ARG524     -0.2864
     66  CB        65.8230   47.7630    3.9100 C.3   524  ARG524      0.0334
     67  CG        67.0790   47.9710    4.6530 C.3   524  ARG524      0.0492
     68  CD        67.3500   49.5080    4.4890 C.3   524  ARG524      0.2205
     69  NE        68.5690   49.8340    3.7940 N.pl3 524  ARG524     -0.0865
     70  CZ        69.7600   49.4780    4.3110 C.cat 524  ARG524      0.5346
     71  NH1       69.8890   48.7940    5.4810 N.pl3 524  ARG524      0.1354
     72  NH2       70.8840   49.8040    3.6500 N.pl3 524  ARG524      0.1354
     73  N         65.4140   49.7720   -3.3790 N.3   529  LYS529     -0.1245
     74  CA        65.7870   48.3620   -3.3940 C.3   529  LYS529      0.1561
     75  C         65.0080   47.5780   -4.4220 C.2   529  LYS529      0.2260
     76  O         65.3180   46.4450   -4.7660 O.2   529  LYS529     -0.2867
     77  CB        65.5100   47.7130   -2.0500 C.3   529  LYS529      0.0271
     78  CG        66.1990   48.3230   -0.8590 C.3   529  LYS529      0.0035
     79  CD        67.6500   47.9940   -1.0030 C.3   529  LYS529      0.0206
     80  CE        68.2970   48.4830    0.2370 C.3   529  LYS529      0.1093
     81  NZ        69.7150   48.2570    0.0990 N.3   529  LYS529     -0.1314
     82  N         63.3500   38.8690    9.2740 N.3   603  TYR603     -0.1227
     83  CA        64.6780   38.5650    8.7660 C.3   603  TYR603      0.1736
     84  C         65.6770   39.2190    9.7110 C.2   603  TYR603      0.2595
     85  O         65.5250   40.3890   10.0900 O.2   603  TYR603     -0.2718
     86  CB        64.8060   39.1190    7.3280 C.3   603  TYR603      0.0548
     87  CG        66.1550   38.9240    6.6620 C.ar  603  TYR603     -0.0200
     88  CD1       66.5480   37.6710    6.2050 C.ar  603  TYR603     -0.0009
     89  CD2       67.0140   40.0010    6.5650 C.ar  603  TYR603     -0.0009
     90  CE1       67.8100   37.4820    5.6560 C.ar  603  TYR603      0.0417
     91  CE2       68.2730   39.8170    6.0230 C.ar  603  TYR603      0.0417
     92  CZ        68.6710   38.5650    5.5740 C.ar  603  TYR603      0.1957
     93  OH        69.9420   38.3990    5.0460 O.3   603  TYR603     -0.2866
     94  N         66.7220   38.4590   10.0400 N.am  604  ARG604     -0.1966
     95  CA        67.7820   38.8900   10.9390 C.3   604  ARG604      0.1729
     96  C         68.9900   37.9600   10.7340 C.2   604  ARG604      0.2616
     97  O         68.9250   37.0660    9.8790 O.2   604  ARG604     -0.2715
     98  CB        67.2330   38.8030   12.3450 C.3   604  ARG604      0.0348
     99  CG        66.7930   37.3820   12.6210 C.3   604  ARG604      0.0492
    100  CD        65.7530   37.3290   13.6660 C.3   604  ARG604      0.2205
    101  NE        64.9340   36.3000   13.1050 N.pl3 604  ARG604     -0.0865
    102  CZ        64.6450   35.1800   13.7270 C.cat 604  ARG604      0.5346
    103  NH1       65.1000   34.9070   14.9580 N.pl3 604  ARG604      0.1354
    104  NH2       63.8680   34.3340   13.0540 N.pl3 604  ARG604      0.1354
    105  N         70.0880   38.0500   11.4960 N.am  605  VAL605     -0.1977
    106  CA        71.2340   37.1640   11.2900 C.3   605  VAL605      0.1596
    107  C         70.9670   35.6490   11.3850 C.2   605  VAL605      0.2287
    108  O         71.4540   34.9050   10.5270 O.2   605  VAL605     -0.2864
    109  CB        72.3550   37.5600   12.2760 C.3   605  VAL605      0.0276
    110  CG1       73.5540   36.6720   12.0830 C.3   605  VAL605      0.0022
    111  CG2       72.8930   38.9440   11.9470 C.3   605  VAL605      0.0022
    112  N         69.1280   34.6670    8.2800 N.3   608  ALA608     -0.1245
    113  CA        70.1010   34.8000    7.2180 C.3   608  ALA608      0.1562
    114  C         70.9600   33.5750    7.1440 C.2   608  ALA608      0.2260
    115  O         71.1390   33.0450    6.0430 O.2   608  ALA608     -0.2867
    116  CB        71.0340   35.9390    7.4500 C.3   608  ALA608      0.0290
    117  N         73.4300   52.5330   -4.5140 N.3   627  GLU627     -0.1245
    118  CA        73.9700   51.6000   -3.5680 C.3   627  GLU627      0.1567
    119  C         75.4690   51.7110   -3.4930 C.2   627  GLU627      0.2260
    120  O         76.0660   51.9140   -4.5400 O.2   627  GLU627     -0.2867
    121  CB        73.5100   50.2240   -4.0190 C.3   627  GLU627      0.0388
    122  CG        73.3070   49.2500   -2.8740 C.3   627  GLU627      0.1160
    123  CD        72.1350   49.6170   -1.9820 C.2   627  GLU627      0.3649
    124  OE1       72.3110   50.3730   -1.0060 O.co2 627  GLU627     -0.2457
    125  OE2       71.0450   49.1360   -2.2900 O.co2 627  GLU627     -0.2457
    126  N         77.7520   49.5230   -1.0070 N.3   629  SER629     -0.1202
    127  CA        78.3500   48.2270   -0.8530 C.3   629  SER629      0.2020
    128  C         77.2870   47.1710   -1.0910 C.2   629  SER629      0.2619
    129  O         76.5390   47.2820   -2.0700 O.2   629  SER629     -0.2717
    130  CB        78.9510   48.1880    0.5400 C.3   629  SER629      0.2103
    131  OG        79.8400   47.0750    0.6520 O.3   629  SER629     -0.2182
    132  N         77.2490   46.1180   -0.2790 N.am  630  GLY630     -0.1942
    133  CA        76.2390   45.0910   -0.3340 C.3   630  GLY630      0.2014
    134  C         76.8510   43.8320    0.2370 C.2   630  GLY630      0.2640
    135  O         77.1700   42.8850   -0.4830 O.2   630  GLY630     -0.2714
    136  N         77.0880   43.7730    1.5400 N.am  631  THR631     -0.1936
    137  CA        77.6870   42.5850    2.1370 C.3   631  THR631      0.2028
    138  C         76.8690   41.3090    1.9590 C.2   631  THR631      0.2643
    139  O         77.4260   40.2140    1.8510 O.2   631  THR631     -0.2714
    140  CB        77.9260   42.8880    3.6160 C.3   631  THR631      0.1808
    141  OG1       76.7560   43.5580    4.0710 O.3   631  THR631     -0.2208
    142  CG2       79.1140   43.8050    3.8740 C.3   631  THR631      0.0379
    143  N         75.5400   41.4070    1.8580 N.am  632  GLY632     -0.1939
    144  CA        74.6890   40.2380    1.6620 C.3   632  GLY632      0.2014
    145  C         75.0280   39.5240    0.3640 C.2   632  GLY632      0.2638
    146  O         75.1210   38.3000    0.2550 O.2   632  GLY632     -0.2714
    147  N         75.3240   40.3810   -0.5970 N.am  633  ASN633     -0.1972
    148  CA        75.6670   40.0130   -1.9400 C.3   633  ASN633      0.1688
    149  C         76.8150   39.0390   -1.9070 C.2   633  ASN633      0.2292
    150  O         76.7890   37.9730   -2.5290 O.2   633  ASN633     -0.2864
    151  CB        76.0910   41.2300   -2.7070 C.3   633  ASN633      0.1181
    152  CG        75.1150   42.3780   -2.6030 C.2   633  ASN633      0.2629
    153  OD1       74.7080   42.7760   -1.5070 O.2   633  ASN633     -0.2716
    154  ND2       74.7080   42.9490   -3.7190 N.am  633  ASN633     -0.0877
    155  N         77.7310   37.3050    0.6720 N.3   635  LYS635     -0.1245
    156  CA        77.3230   36.0960    1.3760 C.3   635  LYS635      0.1561
    157  C         76.7240   35.1580    0.3720 C.2   635  LYS635      0.2260
    158  O         77.1640   34.0210    0.3050 O.2   635  LYS635     -0.2867
    159  CB        76.2940   36.4040    2.4820 C.3   635  LYS635      0.0271
    160  CG        76.9540   37.0760    3.6810 C.3   635  LYS635      0.0035
    161  CD        76.4360   38.3910    4.2920 C.3   635  LYS635      0.0206
    162  CE        75.2060   38.3550    5.1730 C.3   635  LYS635      0.1093
    163  NZ        75.2440   39.6050    5.9200 N.3   635  LYS635     -0.1314
@<TRIPOS>BOND
     1    76    75    2
     2   120   119    2
     3   117   118    1
     4    75    74    1
     5   121   118    1
     6   121   122    1
     7   154   152   am
     8   118   119    1
     9    74    73    1
    10    74    77    1
    11   122   123    1
    12   151   152    1
    13   151   148    1
    14   152   153    2
    15   150   149    2
    16   125   123   ar
    17   129   128    2
    18    77    78    1
    19   123   124   ar
    20   148   149    1
    21   148   147    1
    22    61    60    1
    23   128   127    1
    24   128   132   am
    25    60    59    1
    26   126   127    1
    27    79    78    1
    28    79    80    1
    29   127   130    1
    30   147   145   am
    31   135   134    2
    32    58    59    1
    33    58    57    1
    34   133   132    1
    35   133   134    1
    36    81    80    1
    37    46    47    1
    38   134   136   am
    39   146   145    2
    40   158   157    2
    41   145   144    1
    42   157   156    1
    43   130   131    1
    44    57    54    1
    45   155   156    1
    46   156   159    1
    47    47    48    1
    48    47    50    1
    49   136   137    1
    50    65    64    2
    51   144   143    1
    52    48    49    2
    53    48    53   am
    54    53    54    1
    55   139   138    2
    56   143   138   am
    57    54    55    1
    58   138   137    1
    59    52    50    1
    60   137   140    1
    61    51    50    1
    62   159   160    1
    63    55    56    2
    64    55    62   am
    65    64    63    1
    66    62    63    1
    67   140   142    1
    68   140   141    1
    69    72    70    1
    70   160   161    1
    71    63    66    1
    72    69    70    2
    73    69    68    1
    74    66    67    1
    75   161   162    1
    76    70    71    1
    77    68    67    1
    78    35    34    2
    79    93    92    1
    80   162   163    1
    81    92    90   ar
    82    92    91   ar
    83    90    88   ar
    84    34    33    1
    85    91    89   ar
    86   115   114    2
    87    36    33    1
    88    36    37    1
    89    88    87   ar
    90    89    87   ar
    91    87    86    1
    92    33    32    1
    93    37    39   ar
    94    37    38   ar
    95    42    39   ar
    96    42    44   ar
    97   114   113    1
    98   113   116    1
    99   113   112    1
   100    39    41   ar
   101    86    83    1
   102    18    17    1
   103    18    19    1
   104    38    40   ar
   105    44    45   ar
   106    17    15   am
   107    41    40   ar
   108    41    43   ar
   109    19    20    2
   110    45    43   ar
   111    83    82    1
   112    83    84    1
   113    15    14    1
   114    15    16    2
   115    25    26    1
   116    25    22    1
   117    26    27    1
   118    14    13    1
   119    84    94   am
   120    84    85    2
   121    97    96    2
   122    27    28    1
   123    94    95    1
   124    23    24    2
   125    23    22    1
   126   108   107    2
   127    22    21    1
   128    96    95    1
   129    96   105   am
   130    10     8   ar
   131    10    11   ar
   132    95    98    1
   133    12    11    1
   134    28    29    2
   135   106   107    1
   136   106   105    1
   137   106   109    1
   138    30    29    1
   139     8     6   ar
   140    11     9   ar
   141    29    31    1
   142   111   109    1
   143   110   109    1
   144    98    99    1
   145    99   100    1
   146     6     5    1
   147     6     7   ar
   148     9     7   ar
   149   104   102    1
   150   101   100    1
   151   101   102    2
   152     5     2    1
   153   102   103    1
   154     4     3    2
   155     2     3    1
   156     2     1    1
