@<TRIPOS>MOLECULE
tmp/1pynA00.pdb
 193 183 0 0 0
SMALL
GASTEIGER

@<TRIPOS>ATOM
      1  N         22.3530   16.7470   24.9950 N.3    19  TYR19      -0.1241
      2  CA        22.9440   18.0720   24.9000 C.3    19  TYR19       0.1605
      3  C         21.9260   19.0350   24.3050 C.2    19  TYR19       0.2264
      4  O         21.8160   20.1880   24.7310 O.2    19  TYR19      -0.2867
      5  CB        24.1980   18.0500   24.0150 C.3    19  TYR19       0.0534
      6  CG        24.7750   19.4270   23.7630 C.ar   19  TYR19      -0.0201
      7  CD1       25.2810   20.1900   24.8110 C.ar   19  TYR19      -0.0009
      8  CD2       24.7750   19.9850   22.4830 C.ar   19  TYR19      -0.0009
      9  CE1       25.7680   21.4750   24.6010 C.ar   19  TYR19       0.0417
     10  CE2       25.2570   21.2700   22.2580 C.ar   19  TYR19       0.0417
     11  CZ        25.7500   22.0130   23.3260 C.ar   19  TYR19       0.1957
     12  OH        26.1940   23.2960   23.1280 O.3    19  TYR19      -0.2866
     13  N         20.1380   22.6470   25.7250 N.3    23  ARG23      -0.1245
     14  CA        20.0890   23.8840   24.9610 C.3    23  ARG23       0.1563
     15  C         18.6620   24.4110   24.8970 C.2    23  ARG23       0.2260
     16  O         18.4230   25.6030   25.0850 O.2    23  ARG23      -0.2867
     17  CB        20.6120   23.6660   23.5370 C.3    23  ARG23       0.0307
     18  CG        22.1170   23.4610   23.4290 C.3    23  ARG23       0.0489
     19  CD        22.5740   23.6670   21.9970 C.3    23  ARG23       0.2205
     20  NE        22.2380   25.0090   21.5330 N.pl3  23  ARG23      -0.0865
     21  CZ        22.2620   25.3950   20.2620 C.cat  23  ARG23       0.5346
     22  NH1       22.6100   24.5390   19.3110 N.pl3  23  ARG23       0.1354
     23  NH2       21.9300   26.6390   19.9410 N.pl3  23  ARG23       0.1354
     24  N         17.6430   25.8850   28.2030 N.3    26  ALA26      -0.1231
     25  CA        18.5130   26.9590   28.6790 C.3    26  ALA26       0.1694
     26  C         17.8090   28.3110   28.7860 C.2    26  ALA26       0.2592
     27  O         16.9280   28.6330   27.9900 O.2    26  ALA26      -0.2718
     28  CB        19.7480   27.0770   27.7780 C.3    26  ALA26       0.0304
     29  N         18.2150   29.0950   29.7800 N.am   27  SER27      -0.1952
     30  CA        17.6480   30.4160   30.0280 C.3    27  SER27       0.1924
     31  C         17.9620   31.3660   28.8830 C.2    27  SER27       0.2314
     32  O         18.8870   31.1350   28.1030 O.2    27  SER27      -0.2863
     33  CB        18.2400   31.0120   31.3090 C.3    27  SER27       0.2116
     34  OG        18.3160   30.0510   32.3400 O.3    27  SER27      -0.2180
     35  N         32.7990   38.0610   19.4230 N.3    45  TYR45      -0.1227
     36  CA        31.8060   37.3460   18.6360 C.3    45  TYR45       0.1736
     37  C         30.4220   37.9670   18.7320 C.2    45  TYR45       0.2595
     38  O         29.9660   38.3450   19.8160 O.2    45  TYR45      -0.2718
     39  CB        31.7450   35.8980   19.0880 C.3    45  TYR45       0.0548
     40  CG        33.0620   35.2010   18.9610 C.ar   45  TYR45      -0.0200
     41  CD1       33.6320   34.9820   17.7070 C.ar   45  TYR45      -0.0009
     42  CD2       33.7430   34.7480   20.0910 C.ar   45  TYR45      -0.0009
     43  CE1       34.8440   34.3260   17.5790 C.ar   45  TYR45       0.0417
     44  CE2       34.9620   34.0880   19.9750 C.ar   45  TYR45       0.0417
     45  CZ        35.5050   33.8790   18.7130 C.ar   45  TYR45       0.1957
     46  OH        36.6960   33.2120   18.5840 O.3    45  TYR45      -0.2866
     47  N         29.7610   38.0500   17.5820 N.am   46  ARG46      -0.1966
     48  CA        28.4370   38.6350   17.4880 C.3    46  ARG46       0.1729
     49  C         27.4040   37.7920   18.2220 C.2    46  ARG46       0.2616
     50  O         26.4640   38.3270   18.8020 O.2    46  ARG46      -0.2715
     51  CB        28.0450   38.7800   16.0140 C.3    46  ARG46       0.0348
     52  CG        26.7500   39.5310   15.7820 C.3    46  ARG46       0.0492
     53  CD        26.3690   39.5500   14.3050 C.3    46  ARG46       0.2205
     54  NE        26.0760   38.2120   13.7900 N.pl3  46  ARG46      -0.0865
     55  CZ        25.6220   37.9610   12.5650 C.cat  46  ARG46       0.5346
     56  NH1       25.4040   38.9560   11.7160 N.pl3  46  ARG46       0.1354
     57  NH2       25.3810   36.7110   12.1890 N.pl3  46  ARG46       0.1354
     58  N         27.5890   36.4760   18.2110 N.am   47  ASP47      -0.1957
     59  CA        26.6470   35.5820   18.8690 C.3    47  ASP47       0.1840
     60  C         27.0330   35.1810   20.2950 C.2    47  ASP47       0.2621
     61  O         26.4960   34.2180   20.8390 O.2    47  ASP47      -0.2715
     62  CB        26.4250   34.3340   18.0060 C.3    47  ASP47       0.1450
     63  CG        27.7120   33.5860   17.7140 C.2    47  ASP47       0.3671
     64  OD1       28.7890   34.2070   17.7850 O.co2  47  ASP47      -0.2456
     65  OD2       27.6470   32.3830   17.3920 O.co2  47  ASP47      -0.2456
     66  N         27.9630   35.9090   20.9050 N.am   48  VAL48      -0.1977
     67  CA        28.3490   35.6020   22.2840 C.3    48  VAL48       0.1596
     68  C         28.3640   36.8890   23.0740 C.2    48  VAL48       0.2287
     69  O         29.2850   37.7040   22.9640 O.2    48  VAL48      -0.2864
     70  CB        29.7220   34.9290   22.3770 C.3    48  VAL48       0.0276
     71  CG1       30.0560   34.6190   23.8400 C.3    48  VAL48       0.0022
     72  CG2       29.7200   33.6530   21.5570 C.3    48  VAL48       0.0022
     73  N         43.0630   28.5430   26.4420 N.3   110  ASN110     -0.1240
     74  CA        43.3740   28.5010   25.0240 C.3   110  ASN110      0.1653
     75  C         44.7440   29.0860   24.7630 C.2   110  ASN110      0.2266
     76  O         45.4210   29.5280   25.6840 O.2   110  ASN110     -0.2867
     77  CB        42.3110   29.2710   24.2240 C.3   110  ASN110      0.1155
     78  CG        42.3290   30.7710   24.4920 C.2   110  ASN110      0.2627
     79  OD1       42.8210   31.2340   25.5160 O.2   110  ASN110     -0.2716
     80  ND2       41.7660   31.5360   23.5640 N.am  110  ASN110     -0.0877
     81  N         45.3450   29.6990   17.3910 N.3   114  GLU114     -0.1245
     82  CA        44.8330   28.3350   17.2070 C.3   114  GLU114      0.1567
     83  C         44.2600   28.2080   15.8000 C.2   114  GLU114      0.2260
     84  O         43.7830   29.1900   15.2300 O.2   114  GLU114     -0.2867
     85  CB        43.7420   28.0200   18.2410 C.3   114  GLU114      0.0388
     86  CG        44.2740   27.6720   19.6410 C.3   114  GLU114      0.1160
     87  CD        43.1570   27.3940   20.6620 C.2   114  GLU114      0.3649
     88  OE1       42.0160   27.1000   20.2440 O.co2 114  GLU114     -0.2457
     89  OE2       43.4260   27.4540   21.8810 O.co2 114  GLU114     -0.2457
     90  N         42.9880   33.8650   18.5630 N.3   119  LYS119     -0.1245
     91  CA        41.8500   33.5050   19.3920 C.3   119  LYS119      0.1561
     92  C         41.8490   34.3800   20.6300 C.2   119  LYS119      0.2260
     93  O         40.8710   34.4090   21.3820 O.2   119  LYS119     -0.2867
     94  CB        41.9630   32.0500   19.8420 C.3   119  LYS119      0.0271
     95  CG        41.7790   31.0120   18.7560 C.3   119  LYS119      0.0035
     96  CD        40.3120   30.8510   18.3900 C.3   119  LYS119      0.0206
     97  CE        40.0430   31.2940   16.9620 C.3   119  LYS119      0.1093
     98  NZ        40.8620   30.5410   15.9740 N.3   119  LYS119     -0.1314
     99  N         44.9790   22.1220   25.1080 N.3   178  TRP178     -0.1241
    100  CA        43.6350   21.8090   24.6530 C.3   178  TRP178      0.1605
    101  C         43.7270   21.7320   23.1290 C.2   178  TRP178      0.2264
    102  O         44.2110   22.6580   22.4820 O.2   178  TRP178     -0.2867
    103  CB        42.6560   22.9010   25.0930 C.3   178  TRP178      0.0550
    104  CG        41.2320   22.5470   24.8670 C.ar  178  TRP178      0.0003
    105  CD1       40.5760   22.5130   23.6710 C.ar  178  TRP178      0.0946
    106  CD2       40.2940   22.1030   25.8540 C.ar  178  TRP178      0.0152
    107  NE1       39.2870   22.0680   23.8530 N.ar  178  TRP178     -0.2442
    108  CE2       39.0890   21.8100   25.1840 C.ar  178  TRP178      0.0810
    109  CE3       40.3580   21.9210   27.2410 C.ar  178  TRP178      0.0012
    110  CZ2       37.9520   21.3390   25.8540 C.ar  178  TRP178      0.0191
    111  CZ3       39.2300   21.4540   27.9090 C.ar  178  TRP178      0.0001
    112  CH2       38.0430   21.1680   27.2130 C.ar  178  TRP178      0.0015
    113  N         38.5290   31.4570   27.3700 N.3   214  CYS214     -0.1221
    114  CA        39.0580   30.6710   26.2660 C.3   214  CYS214      0.1808
    115  C         38.9410   31.7110   25.1560 C.2   214  CYS214      0.2602
    116  O         39.4670   32.8070   25.3050 O.2   214  CYS214     -0.2717
    117  CB        38.1950   29.4270   25.9860 C.3   214  CYS214      0.0970
    118  SG        36.4220   29.5640   26.3490 S.3   214  CYS214     -0.0800
    119  N         38.2590   31.4160   24.0590 N.am  215  SER215     -0.1938
    120  CA        38.1230   32.4440   23.0360 C.3   215  SER215      0.2055
    121  C         36.8100   33.1920   23.2420 C.2   215  SER215      0.2642
    122  O         36.8040   34.4240   23.3250 O.2   215  SER215     -0.2714
    123  CB        38.1730   31.8520   21.6290 C.3   215  SER215      0.2130
    124  OG        38.3480   32.8810   20.6730 O.3   215  SER215     -0.2179
    125  N         35.7040   32.4530   23.3360 N.am  216  ALA216     -0.1977
    126  CA        34.3960   33.0740   23.5500 C.3   216  ALA216      0.1597
    127  C         34.0280   33.0910   25.0340 C.2   216  ALA216      0.2287
    128  O         33.1520   33.8380   25.4620 O.2   216  ALA216     -0.2864
    129  CB        33.3170   32.3350   22.7530 C.3   216  ALA216      0.0319
    130  N         32.7780   30.4550   26.8830 N.3   218  ILE218     -0.1231
    131  CA        31.5430   29.7300   27.1560 C.3   218  ILE218      0.1692
    132  C         31.6900   28.2200   27.0010 C.2   218  ILE218      0.2593
    133  O         31.0050   27.4660   27.6850 O.2   218  ILE218     -0.2718
    134  CB        30.3690   30.2000   26.2350 C.3   218  ILE218      0.0266
    135  CG1       30.6920   29.8840   24.7700 C.3   218  ILE218      0.0019
    136  CG2       30.1060   31.7020   26.4320 C.3   218  ILE218      0.0020
    137  CD1       29.6730   30.4240   23.7910 C.3   218  ILE218      0.0001
    138  N         32.5810   27.7860   26.1090 N.am  219  GLY219     -0.1942
    139  CA        32.7780   26.3640   25.8720 C.3   219  GLY219      0.2014
    140  C         33.7490   25.7100   26.8320 C.2   219  GLY219      0.2638
    141  O         33.3290   25.0370   27.7800 O.2   219  GLY219     -0.2714
    142  N         35.0450   25.8950   26.5830 N.am  220  ARG220     -0.1977
    143  CA        36.0830   25.3440   27.4500 C.3   220  ARG220      0.1597
    144  C         35.9510   25.9320   28.8540 C.2   220  ARG220      0.2287
    145  O         36.0920   25.2170   29.8400 O.2   220  ARG220     -0.2864
    146  CB        37.4790   25.6640   26.9040 C.3   220  ARG220      0.0334
    147  CG        37.7010   25.1810   25.4830 C.3   220  ARG220      0.0492
    148  CD        39.1070   25.4880   25.0060 C.3   220  ARG220      0.2205
    149  NE        39.1660   25.4620   23.5530 N.pl3 220  ARG220     -0.0865
    150  CZ        40.2240   25.8230   22.8330 C.cat 220  ARG220      0.5346
    151  NH1       41.3400   26.2450   23.4290 N.pl3 220  ARG220      0.1354
    152  NH2       40.1560   25.7740   21.5110 N.pl3 220  ARG220      0.1354
    153  N         23.9080   28.4560   33.1860 N.3   253  ARG253     -0.1245
    154  CA        23.4690   29.1550   31.9810 C.3   253  ARG253      0.1563
    155  C         22.5020   30.3040   32.2720 C.2   253  ARG253      0.2260
    156  O         22.1260   31.0450   31.3720 O.2   253  ARG253     -0.2867
    157  CB        22.8350   28.1850   30.9800 C.3   253  ARG253      0.0307
    158  CG        23.8430   27.3510   30.2030 C.3   253  ARG253      0.0489
    159  CD        23.3220   27.0480   28.8050 C.3   253  ARG253      0.2205
    160  NE        24.2420   26.2350   28.0170 N.pl3 253  ARG253     -0.0865
    161  CZ        24.1640   26.0870   26.6980 C.cat 253  ARG253      0.5346
    162  NH1       23.2080   26.6990   26.0150 N.pl3 253  ARG253      0.1354
    163  NH2       25.0410   25.3320   26.0580 N.pl3 253  ARG253      0.1354
    164  N         25.1780   32.7760   28.5420 N.3   257  MET257     -0.1230
    165  CA        24.6900   31.9240   27.4720 C.3   257  MET257      0.1702
    166  C         25.6990   30.9380   26.8930 C.2   257  MET257      0.2592
    167  O         26.9100   31.1510   26.9450 O.2   257  MET257     -0.2718
    168  CB        24.1690   32.7890   26.3240 C.3   257  MET257      0.0401
    169  CG        25.2270   33.7410   25.7800 C.3   257  MET257      0.0596
    170  SD        24.8820   34.3630   24.1330 S.3   257  MET257     -0.1393
    171  CE        23.8200   35.7690   24.4860 C.3   257  MET257      0.0692
    172  N         25.1650   29.8610   26.3340 N.am  258  GLY258     -0.1957
    173  CA        25.9720   28.8550   25.6690 C.3   258  GLY258      0.1869
    174  C         27.0880   28.1150   26.3780 C.2   258  GLY258      0.2309
    175  O         27.9880   27.6060   25.7100 O.2   258  GLY258     -0.2863
    176  N         29.6450   24.2130   24.5850 N.3   261  GLN261     -0.1245
    177  CA        29.3290   24.4070   23.1720 C.3   261  GLN261      0.1566
    178  C         29.0440   23.1860   22.3090 C.2   261  GLN261      0.2260
    179  O         28.5690   23.3340   21.1880 O.2   261  GLN261     -0.2867
    180  CB        30.4460   25.2210   22.5120 C.3   261  GLN261      0.0367
    181  CG        30.4380   26.6980   22.8640 C.3   261  GLN261      0.0905
    182  CD        29.3340   27.4660   22.1500 C.2   261  GLN261      0.2608
    183  OE1       29.3610   27.6180   20.9280 O.2   261  GLN261     -0.2717
    184  NE2       28.3550   27.9500   22.9120 N.am  261  GLN261     -0.0878
    185  N         31.8580   18.3210   24.4360 N.3   265  GLN265     -0.1245
    186  CA        32.2390   19.0090   25.6630 C.3   265  GLN265      0.1566
    187  C         31.3710   18.5430   26.8200 C.2   265  GLN265      0.2260
    188  O         31.8430   18.4440   27.9540 O.2   265  GLN265     -0.2867
    189  CB        32.1160   20.5290   25.5080 C.3   265  GLN265      0.0367
    190  CG        33.1650   21.1480   24.5980 C.3   265  GLN265      0.0905
    191  CD        33.1580   22.6670   24.6510 C.2   265  GLN265      0.2608
    192  OE1       32.1740   23.2770   25.0740 O.2   265  GLN265     -0.2717
    193  NE2       34.2530   23.2860   24.2070 N.am  265  GLN265     -0.0878
@<TRIPOS>BOND
     1    56    55    1
     2    57    55    1
     3    55    54    2
     4    54    53    1
     5    53    52    1
     6    84    83    2
     7    52    51    1
     8    83    82    1
     9    98    97    1
    10    51    48    1
    11    97    96    1
    12    82    81    1
    13    82    85    1
    14    65    63   ar
    15    48    47    1
    16    48    49    1
    17    43    41   ar
    18    43    45   ar
    19    47    37   am
    20    41    40   ar
    21    63    64   ar
    22    63    62    1
    23    62    59    1
    24    58    49   am
    25    58    59    1
    26    49    50    2
    27    85    86    1
    28    96    95    1
    29    90    91    1
    30    46    45    1
    31    36    37    1
    32    36    39    1
    33    36    35    1
    34    45    44   ar
    35    37    38    2
    36    95    94    1
    37    59    60    1
    38    40    39    1
    39    40    42   ar
    40    22    21    1
    41    91    94    1
    42    91    92    1
    43    86    87    1
    44    23    21    1
    45    44    42   ar
    46    88    87   ar
    47    21    20    2
    48    60    61    2
    49    60    66   am
    50    92    93    2
    51    87    89   ar
    52   124   123    1
    53    66    67    1
    54   183   182    2
    55   179   178    2
    56   152   150    1
    57    20    19    1
    58    72    70    1
    59   123   120    1
    60    19    18    1
    61   182   181    1
    62   182   184   am
    63    10     8   ar
    64    10    11   ar
    65    67    70    1
    66    67    68    1
    67   178   177    1
    68    70    71    1
    69   102   101    2
    70     8     6   ar
    71   180   181    1
    72   180   177    1
    73   129   126    1
    74   150   151    1
    75   150   149    2
    76    69    68    2
    77   120   121    1
    78   120   119    1
    79    12    11    1
    80   101   100    1
    81   177   176    1
    82   121   122    2
    83   121   125   am
    84    11     9   ar
    85   125   126    1
    86    18    17    1
    87    17    14    1
    88   126   127    1
    89   149   148    1
    90    80    78   am
    91   105   107   ar
    92   105   104   ar
    93     6     5    1
    94     6     7   ar
    95   137   135    1
    96   107   108   ar
    97     5     2    1
    98   119   115   am
    99   170   171    1
   100   170   169    1
   101   193   191   am
   102    77    78    1
   103    77    74    1
   104     3     4    2
   105     3     2    1
   106   185   186    1
   107    78    79    2
   108   190   191    1
   109   190   189    1
   110     9     7   ar
   111   191   192    2
   112   100   103    1
   113   100    99    1
   114    75    74    1
   115    75    76    2
   116   135   134    1
   117   104   103    1
   118   104   106   ar
   119    15    14    1
   120    15    16    2
   121     2     1    1
   122    14    13    1
   123   148   147    1
   124    74    73    1
   125   127   128    2
   126   115   116    2
   127   115   114    1
   128   108   110   ar
   129   108   106   ar
   130   147   146    1
   131   189   186    1
   132   186   187    1
   133   173   172    1
   134   173   174    1
   135   175   174    2
   136   169   168    1
   137   110   112   ar
   138   106   109   ar
   139   139   138    1
   140   139   140    1
   141   117   114    1
   142   117   118    1
   143   162   161    1
   144   163   161    1
   145   138   132   am
   146   134   136    1
   147   134   131    1
   148   114   113    1
   149   168   165    1
   150   172   166   am
   151   142   140   am
   152   142   143    1
   153   161   160    2
   154   187   188    2
   155   140   141    2
   156   130   131    1
   157   166   167    2
   158   166   165    1
   159   146   143    1
   160   132   131    1
   161   132   133    2
   162   112   111   ar
   163   109   111   ar
   164   143   144    1
   165   165   164    1
   166    28    25    1
   167    27    26    2
   168   160   159    1
   169    32    31    2
   170    24    25    1
   171    25    26    1
   172    26    29   am
   173   159   158    1
   174   144   145    2
   175    31    30    1
   176    29    30    1
   177    30    33    1
   178   158   157    1
   179   157   154    1
   180    33    34    1
   181   156   155    2
   182   154   155    1
   183   154   153    1
