@<TRIPOS>MOLECULE
tmp/1pyoE00.pdb
 139 139 0 0 0
SMALL
GASTEIGER

@<TRIPOS>ATOM
      1  N          7.7240   27.5500   25.0480 N.3    22  ALA22      -0.1231
      2  CA         6.4410   27.2540   24.4280 C.3    22  ALA22       0.1694
      3  C          5.3460   28.1120   25.0660 C.2    22  ALA22       0.2592
      4  O          5.4750   28.5480   26.2110 O.2    22  ALA22      -0.2718
      5  CB         6.0970   25.7810   24.6110 C.3    22  ALA22       0.0304
      6  N          4.2900   28.3650   24.3060 N.am   23  ALA23      -0.1966
      7  CA         3.1430   29.1200   24.7970 C.3    23  ALA23       0.1728
      8  C          2.0900   28.0570   25.0770 C.2    23  ALA23       0.2616
      9  O          2.0260   27.0450   24.3720 O.2    23  ALA23      -0.2715
     10  CB         2.6450   30.0790   23.7410 C.3    23  ALA23       0.0334
     11  N          1.2470   28.2750   26.0800 N.am   24  MET24      -0.1963
     12  CA         0.2450   27.2690   26.4370 C.3    24  MET24       0.1736
     13  C         -1.1860   27.5340   25.9450 C.2    24  MET24       0.2616
     14  O         -1.6640   28.6640   25.9340 O.2    24  MET24      -0.2715
     15  CB         0.2660   27.0790   27.9540 C.3    24  MET24       0.0427
     16  CG         1.6460   26.6590   28.4710 C.3    24  MET24       0.0599
     17  SD         2.3410   25.2390   27.5320 S.3    24  MET24      -0.1393
     18  CE         1.2100   23.9350   28.0530 C.3    24  MET24       0.0692
     19  N         -1.8640   26.4700   25.5280 N.am   25  ARG25      -0.1963
     20  CA        -3.2050   26.5630   24.9970 C.3    25  ARG25       0.1729
     21  C         -4.0530   25.4880   25.6350 C.2    25  ARG25       0.2616
     22  O         -3.6920   24.3080   25.6270 O.2    25  ARG25      -0.2715
     23  CB        -3.1760   26.3750   23.4730 C.3    25  ARG25       0.0348
     24  CG        -4.5240   26.1760   22.7940 C.3    25  ARG25       0.0492
     25  CD        -4.3760   26.1230   21.2620 C.3    25  ARG25       0.2205
     26  NE        -3.1530   25.4400   20.8660 N.pl3  25  ARG25      -0.0865
     27  CZ        -2.9620   24.1290   20.9360 C.cat  25  ARG25       0.5346
     28  NH1       -3.9300   23.3350   21.3750 N.pl3  25  ARG25       0.1354
     29  NH2       -1.7810   23.6140   20.6240 N.pl3  25  ARG25       0.1354
     30  N         -5.1740   25.9000   26.2040 N.am   26  ASN26      -0.1958
     31  CA        -6.0630   24.9540   26.8460 C.3    26  ASN26       0.1819
     32  C         -7.0570   24.4700   25.8000 C.2    26  ASN26       0.2622
     33  O         -7.6370   25.2610   25.0510 O.2    26  ASN26      -0.2715
     34  CB        -6.7740   25.6370   28.0120 C.3    26  ASN26       0.1195
     35  CG        -7.5850   24.6800   28.8290 C.2    26  ASN26       0.2630
     36  OD1       -8.7580   24.4570   28.5460 O.2    26  ASN26      -0.2716
     37  ND2       -6.9620   24.0960   29.8500 N.am   26  ASN26      -0.0877
     38  N         -7.2780   23.1660   25.7400 N.am   27  THR27      -0.1937
     39  CA        -8.1850   22.6600   24.7190 C.3    27  THR27       0.2028
     40  C         -9.6270   23.1380   24.8040 C.2    27  THR27       0.2642
     41  O        -10.3390   23.1500   23.7980 O.2    27  THR27      -0.2714
     42  CB        -8.1430   21.1220   24.6940 C.3    27  THR27       0.1808
     43  OG1       -8.4840   20.6040   25.9860 O.3    27  THR27      -0.2208
     44  CG2       -6.7520   20.6690   24.3390 C.3    27  THR27       0.0379
     45  N        -10.0760   23.5490   25.9840 N.am   28  LYS28      -0.1977
     46  CA       -11.4540   24.0290   26.1150 C.3    28  LYS28       0.1596
     47  C        -11.5750   25.5440   26.2300 C.2    28  LYS28       0.2287
     48  O        -12.5010   26.1420   25.6820 O.2    28  LYS28      -0.2864
     49  CB       -12.1420   23.3970   27.3400 C.3    28  LYS28       0.0298
     50  CG       -12.3650   21.8860   27.2200 C.3    28  LYS28       0.0038
     51  CD       -13.0720   21.2960   28.4440 C.3    28  LYS28       0.0206
     52  CE       -14.5130   21.7880   28.5570 C.3    28  LYS28       0.1093
     53  NZ       -15.2870   21.0710   29.6320 N.3    28  LYS28      -0.1314
     54  N         -6.1030   29.6380   24.3690 N.3    31  SER31      -0.1202
     55  CA        -4.7810   29.9540   24.9230 C.3    31  SER31       0.2020
     56  C         -4.8720   30.7880   26.1770 C.2    31  SER31       0.2618
     57  O         -5.7620   31.6330   26.3250 O.2    31  SER31      -0.2717
     58  CB        -3.9150   30.6860   23.8950 C.3    31  SER31       0.2103
     59  OG        -3.8810   29.9820   22.6630 O.3    31  SER31      -0.2182
     60  N         -3.9260   30.5740   27.0790 N.am   32  TRP32      -0.1975
     61  CA        -3.9330   31.3320   28.3140 C.3    32  TRP32       0.1640
     62  C         -3.8360   32.8140   27.9930 C.2    32  TRP32       0.2290
     63  O         -4.5050   33.6460   28.6120 O.2    32  TRP32      -0.2864
     64  CB        -2.7210   31.0000   29.1570 C.3    32  TRP32       0.0576
     65  CG        -2.5790   29.5780   29.6480 C.ar   32  TRP32       0.0006
     66  CD1       -3.3910   28.5050   29.3670 C.ar   32  TRP32       0.0946
     67  CD2       -1.5270   29.0850   30.4710 C.ar   32  TRP32       0.0152
     68  NE1       -2.8920   27.3680   29.9760 N.ar   32  TRP32      -0.2442
     69  CE2       -1.7480   27.6990   30.6570 C.ar   32  TRP32       0.0810
     70  CE3       -0.4110   29.6770   31.0720 C.ar   32  TRP32       0.0012
     71  CZ2       -0.8930   26.9040   31.4160 C.ar   32  TRP32       0.0191
     72  CZ3        0.4400   28.8870   31.8320 C.ar   32  TRP32       0.0001
     73  CH2        0.1970   27.5120   31.9980 C.ar   32  TRP32       0.0015
     74  N         -0.8340   31.7690   36.3950 N.3    64  ARG64      -0.1231
     75  CA        -1.4480   30.5570   35.8980 C.3    64  ARG64       0.1694
     76  C         -0.4650   29.3970   35.8730 C.2    64  ARG64       0.2592
     77  O          0.7490   29.5740   35.7940 O.2    64  ARG64      -0.2718
     78  CB        -2.0040   30.7970   34.4970 C.3    64  ARG64       0.0321
     79  CG        -2.7990   29.6100   34.0110 C.3    64  ARG64       0.0489
     80  CD        -4.0300   30.0750   33.2950 C.3    64  ARG64       0.2205
     81  NE        -4.7130   28.9510   32.7020 N.pl3  64  ARG64      -0.0865
     82  CZ        -5.5860   29.0770   31.7210 C.cat  64  ARG64       0.5346
     83  NH1       -5.8650   30.2900   31.2440 N.pl3  64  ARG64       0.1354
     84  NH2       -6.1590   27.9930   31.2110 N.pl3  64  ARG64       0.1354
     85  N         -0.9940   28.1820   35.9340 N.am   65  GLU65      -0.1966
     86  CA        -0.1120   27.0420   35.8960 C.3    65  GLU65       0.1733
     87  C         -0.7860   25.9320   35.0800 C.2    65  GLU65       0.2617
     88  O         -2.0220   25.8710   34.9830 O.2    65  GLU65      -0.2715
     89  CB         0.1900   26.6490   37.3340 C.3    65  GLU65       0.0429
     90  CG         0.4310   25.2260   37.5930 C.3    65  GLU65       0.1163
     91  CD         0.4590   24.9690   39.0820 C.2    65  GLU65       0.3649
     92  OE1        1.1380   25.7470   39.7890 O.co2  65  GLU65      -0.2457
     93  OE2       -0.1820   23.9940   39.5230 O.co2  65  GLU65      -0.2457
     94  N          0.0350   25.0820   34.4780 N.am   66  GLY66      -0.1940
     95  CA        -0.4870   24.0310   33.6280 C.3    66  GLY66       0.2014
     96  C         -1.2520   22.9270   34.3240 C.2    66  GLY66       0.2639
     97  O         -0.9220   22.5290   35.4230 O.2    66  GLY66      -0.2714
     98  N         -2.3010   22.4590   33.6560 N.am   67  TYR67      -0.1959
     99  CA        -3.0860   21.3510   34.1490 C.3    67  TYR67       0.1771
    100  C         -2.9980   20.3090   33.0130 C.2    67  TYR67       0.2619
    101  O         -3.5910   20.4920   31.9540 O.2    67  TYR67      -0.2715
    102  CB        -4.5440   21.7600   34.3430 C.3    67  TYR67       0.0574
    103  CG        -5.3450   20.5900   34.8240 C.ar   67  TYR67      -0.0198
    104  CD1       -5.1680   20.0850   36.1150 C.ar   67  TYR67      -0.0009
    105  CD2       -6.1900   19.9100   33.9550 C.ar   67  TYR67      -0.0009
    106  CE1       -5.8140   18.9170   36.5180 C.ar   67  TYR67       0.0417
    107  CE2       -6.8340   18.7560   34.3420 C.ar   67  TYR67       0.0417
    108  CZ        -6.6440   18.2610   35.6150 C.ar   67  TYR67       0.1957
    109  OH        -7.2790   17.0910   35.9610 O.3    67  TYR67      -0.2866
    110  N         -2.2420   19.2400   33.2350 N.am   68  ALA68      -0.1964
    111  CA        -2.0700   18.1910   32.2250 C.3    68  ALA68       0.1713
    112  C         -1.3470   17.0490   32.9290 C.2    68  ALA68       0.2458
    113  O         -0.2570   16.6570   32.5690 O.2    68  ALA68      -0.2730
    114  CB        -1.2250   18.7200   31.0510 C.3    68  ALA68       0.0333
    115  N         -1.9740   16.4930   33.9620 N.am   69  PRO69      -0.2727
    116  CA        -1.3620   15.4000   34.7140 C.3    69  PRO69       0.1402
    117  C         -0.8790   14.2440   33.8190 C.2    69  PRO69       0.2269
    118  O         -1.5470   13.8900   32.8560 O.2    69  PRO69      -0.2865
    119  CB        -2.4830   14.9950   35.6800 C.3    69  PRO69       0.0296
    120  CG        -3.6950   15.2370   34.8930 C.3    69  PRO69       0.0237
    121  CD        -3.4090   16.6100   34.2800 C.3    69  PRO69       0.0939
    122  N          1.6820   14.3590   31.8610 N.3    71  THR71      -0.1218
    123  CA         2.3840   14.8740   30.6780 C.3    71  THR71       0.1862
    124  C          3.4810   15.8140   31.1490 C.2    71  THR71       0.2287
    125  O          3.5570   16.1740   32.3220 O.2    71  THR71      -0.2866
    126  CB         1.4840   15.7080   29.7620 C.3    71  THR71       0.1770
    127  OG1        1.2900   17.0040   30.3620 O.3    71  THR71      -0.2211
    128  CG2        0.1430   15.0360   29.5630 C.3    71  THR71       0.0375
    129  N          3.6860   18.8570   30.6380 N.3    73  PHE73      -0.1241
    130  CA         3.1670   20.1920   30.9020 C.3    73  PHE73       0.1605
    131  C          2.4770   20.4110   32.2490 C.2    73  PHE73       0.2264
    132  O          2.0360   21.5280   32.5520 O.2    73  PHE73      -0.2867
    133  CB         2.1900   20.5520   29.7830 C.3    73  PHE73       0.0534
    134  CG         2.7930   20.4550   28.4190 C.ar   73  PHE73      -0.0203
    135  CD1        3.8780   21.2670   28.0640 C.ar   73  PHE73      -0.0042
    136  CD2        2.3070   19.5340   27.5020 C.ar   73  PHE73      -0.0042
    137  CE1        4.4760   21.1500   26.7870 C.ar   73  PHE73      -0.0003
    138  CE2        2.8820   19.4090   26.2410 C.ar   73  PHE73      -0.0003
    139  CZ         3.9700   20.2180   25.8830 C.ar   73  PHE73      -0.0000
@<TRIPOS>BOND
     1    29    27    1
     2    26    27    2
     3    26    25    1
     4    27    28    1
     5    25    24    1
     6    59    58    1
     7    24    23    1
     8    23    20    1
     9    10     7    1
    10    41    40    2
    11    58    55    1
    12     6     7    1
    13     6     3   am
    14    44    42    1
    15    54    55    1
    16     9     8    2
    17     2     5    1
    18     2     1    1
    19     2     3    1
    20    42    39    1
    21    42    43    1
    22    39    40    1
    23    39    38    1
    24     7     8    1
    25    40    45   am
    26    55    56    1
    27    20    19    1
    28    20    21    1
    29    33    32    2
    30     3     4    2
    31     8    11   am
    32    19    13   am
    33    22    21    2
    34    21    30   am
    35    48    47    2
    36    38    32   am
    37    32    31    1
    38   139   138   ar
    39   139   137   ar
    40    14    13    2
    41    13    12    1
    42    45    46    1
    43    11    12    1
    44    46    47    1
    45    46    49    1
    46    56    57    2
    47    56    60   am
    48    30    31    1
    49   138   136   ar
    50    12    15    1
    51   137   135   ar
    52    31    34    1
    53    60    61    1
    54    50    49    1
    55    50    51    1
    56   136   134   ar
    57    17    18    1
    58    17    16    1
    59    15    16    1
    60    62    61    1
    61    62    63    2
    62    34    35    1
    63   135   134   ar
    64    61    64    1
    65   134   133    1
    66    51    52    1
    67    36    35    2
    68    52    53    1
    69    35    37   am
    70    64    65    1
    71    66    65   ar
    72    66    68   ar
    73   128   126    1
    74    65    67   ar
    75   126   127    1
    76   126   123    1
    77   133   130    1
    78    68    69   ar
    79    67    69   ar
    80    67    70   ar
    81   129   130    1
    82    69    71   ar
    83   123   124    1
    84   123   122    1
    85   130   131    1
    86   114   111    1
    87    70    72   ar
    88   124   125    2
    89    84    82    1
    90    83    82    1
    91    71    73   ar
    92    82    81    2
    93    72    73   ar
    94   101   100    2
    95   111   112    1
    96   111   110    1
    97   131   132    2
    98   113   112    2
    99    81    80    1
   100   118   117    2
   101   112   115   am
   102   100   110   am
   103   100    99    1
   104    80    79    1
   105    95    96    1
   106    95    94    1
   107    98    99    1
   108    98    96   am
   109   117   116    1
   110   105   107   ar
   111   105   103   ar
   112   115   121    1
   113   115   116    1
   114    79    78    1
   115    99   102    1
   116   121   120    1
   117    96    97    2
   118   107   108   ar
   119   102   103    1
   120    94    87   am
   121    78    75    1
   122   116   119    1
   123   103   104   ar
   124   120   119    1
   125    88    87    2
   126    87    86    1
   127   108   109    1
   128   108   106   ar
   129    77    76    2
   130    76    75    1
   131    76    85   am
   132    86    85    1
   133    86    89    1
   134    75    74    1
   135   104   106   ar
   136    89    90    1
   137    90    91    1
   138    91    93   ar
   139    91    92   ar
