@<TRIPOS>MOLECULE
tmp/1pyoD00.pdb
 85 83 0 0 0
SMALL
GASTEIGER

@<TRIPOS>ATOM
      1  N          1.1730   19.5870   15.4140 N.3    45  GLU45      -0.1231
      2  CA        -0.0990   19.1650   16.0010 C.3    45  GLU45       0.1699
      3  C         -1.2800   20.1140   15.8630 C.2    45  GLU45       0.2592
      4  O         -1.1590   21.3370   16.0070 O.2    45  GLU45      -0.2718
      5  CB         0.0830   18.8470   17.4810 C.3    45  GLU45       0.0402
      6  CG         0.1360   17.3580   17.8240 C.3    45  GLU45       0.1161
      7  CD        -1.0960   16.5900   17.3470 C.2    45  GLU45       0.3649
      8  OE1       -1.2250   16.3670   16.1210 O.co2  45  GLU45      -0.2457
      9  OE2       -1.9380   16.2120   18.1950 O.co2  45  GLU45      -0.2457
     10  N         -2.4390   19.5280   15.5910 N.am   46  PHE46      -0.1962
     11  CA        -3.6850   20.2650   15.4730 C.3    46  PHE46       0.1771
     12  C         -3.8200   21.1230   16.7390 C.2    46  PHE46       0.2619
     13  O         -3.6320   20.6360   17.8540 O.2    46  PHE46      -0.2715
     14  CB        -4.8440   19.2580   15.3800 C.3    46  PHE46       0.0574
     15  CG        -6.1990   19.8780   15.3660 C.ar   46  PHE46      -0.0200
     16  CD1       -6.7220   20.4250   14.2040 C.ar   46  PHE46      -0.0042
     17  CD2       -6.9450   19.9620   16.5340 C.ar   46  PHE46      -0.0042
     18  CE1       -7.9750   21.0580   14.2060 C.ar   46  PHE46      -0.0003
     19  CE2       -8.1990   20.5910   16.5490 C.ar   46  PHE46      -0.0003
     20  CZ        -8.7130   21.1400   15.3910 C.ar   46  PHE46      -0.0000
     21  N         -4.1370   22.4040   16.5720 N.am   47  ARG47      -0.1963
     22  CA        -4.2590   23.3020   17.7220 C.3    47  ARG47       0.1729
     23  C         -5.6900   23.3450   18.2770 C.2    47  ARG47       0.2616
     24  O         -6.4740   24.2500   17.9870 O.2    47  ARG47      -0.2715
     25  CB        -3.7570   24.7160   17.3150 C.3    47  ARG47       0.0348
     26  CG        -2.2890   24.7030   16.8320 C.3    47  ARG47       0.0492
     27  CD        -1.7870   26.0990   16.3770 C.3    47  ARG47       0.2205
     28  NE        -1.8630   27.0310   17.4900 N.pl3  47  ARG47      -0.0865
     29  CZ        -2.7830   27.9790   17.6280 C.cat  47  ARG47       0.5346
     30  NH1       -3.7180   28.1760   16.7080 N.pl3  47  ARG47       0.1354
     31  NH2       -2.8030   28.6940   18.7550 N.pl3  47  ARG47       0.1354
     32  N         -6.0420   22.3370   19.0710 N.am   48  SER48      -0.1950
     33  CA        -7.3780   22.2910   19.6560 C.3    48  SER48       0.1924
     34  C         -7.5250   23.4760   20.5850 C.2    48  SER48       0.2314
     35  O         -6.6150   23.7670   21.3590 O.2    48  SER48      -0.2863
     36  CB        -7.5840   21.0140   20.4820 C.3    48  SER48       0.2116
     37  OG        -7.4350   19.8490   19.6930 O.3    48  SER48      -0.2180
     38  N         -9.9880   30.8040   20.6130 N.3    53  ASP53      -0.1239
     39  CA        -9.1900   32.0400   20.5180 C.3    53  ASP53       0.1674
     40  C         -9.6810   32.8950   19.3630 C.2    53  ASP53       0.2266
     41  O         -9.8630   34.0940   19.4810 O.2    53  ASP53      -0.2867
     42  CB        -7.7260   31.7060   20.2570 C.3    53  ASP53       0.1410
     43  CG        -7.0420   31.0950   21.4500 C.2    53  ASP53       0.3668
     44  OD1       -7.5440   31.2790   22.5800 O.co2  53  ASP53      -0.2456
     45  OD2       -5.9880   30.4310   21.2500 O.co2  53  ASP53      -0.2456
     46  N         -0.8060   30.6720   15.8370 N.3   104  SER104     -0.1202
     47  CA        -0.3210   29.4860   15.1310 C.3   104  SER104      0.2020
     48  C          0.8000   28.8180   15.9150 C.2   104  SER104      0.2619
     49  O          1.0540   29.1370   17.0900 O.2   104  SER104     -0.2717
     50  CB         0.2110   29.9620   13.7590 C.3   104  SER104      0.2103
     51  OG         0.5990   28.8940   12.9090 O.3   104  SER104     -0.2182
     52  N          1.4630   27.8520   15.2800 N.am  105  HIS105     -0.1961
     53  CA         2.6340   27.2760   15.8750 C.3   105  HIS105      0.1787
     54  C          3.7520   28.2490   15.4770 C.2   105  HIS105      0.2620
     55  O          3.5670   29.0610   14.5550 O.2   105  HIS105     -0.2715
     56  CB         2.9480   25.9010   15.3020 C.3   105  HIS105      0.0785
     57  CG         2.1550   24.8070   15.9300 C.ar  105  HIS105      0.0821
     58  ND1        2.2710   24.4890   17.2650 N.ar  105  HIS105     -0.2267
     59  CD2        1.2320   23.9610   15.4120 C.ar  105  HIS105      0.1154
     60  CE1        1.4540   23.4870   17.5420 C.ar  105  HIS105      0.1986
     61  NE2        0.8130   23.1500   16.4370 N.ar  105  HIS105     -0.2212
     62  N          4.8850   28.1670   16.1520 N.am  106  GLY106     -0.1954
     63  CA         5.9980   29.0330   15.7960 C.3   106  GLY106      0.1869
     64  C          7.3060   28.6330   16.4350 C.2   106  GLY106      0.2309
     65  O          7.3740   27.6130   17.1330 O.2   106  GLY106     -0.2863
     66  N          0.1560   34.7480   19.4430 N.3   146  GLN146     -0.1231
     67  CA        -0.0240   33.5190   20.2040 C.3   146  GLN146      0.1698
     68  C          0.6630   32.4400   19.3630 C.2   146  GLN146      0.2592
     69  O          0.0980   31.9830   18.3610 O.2   146  GLN146     -0.2718
     70  CB        -1.5130   33.1680   20.3380 C.3   146  GLN146      0.0381
     71  CG        -1.7420   31.7670   20.9370 C.3   146  GLN146      0.0905
     72  CD        -1.2380   31.6570   22.3640 C.2   146  GLN146      0.2608
     73  OE1       -1.4860   32.6840   23.1510 O.2   146  GLN146     -0.2717
     74  NE2       -0.6440   30.6420   22.7520 N.am  146  GLN146     -0.0878
     75  N          1.8760   32.0760   19.7530 N.am  147  ALA147     -0.1966
     76  CA         2.6620   31.0580   19.0630 C.3   147  ALA147      0.1728
     77  C          3.8810   30.7410   19.9240 C.2   147  ALA147      0.2616
     78  O          4.3950   31.6040   20.6580 O.2   147  ALA147     -0.2715
     79  CB         3.1040   31.5890   17.6740 C.3   147  ALA147      0.0334
     80  N          4.3570   29.5020   19.8500 N.am  148  CYS148     -0.1968
     81  CA         5.5330   29.1260   20.6230 C.3   148  CYS148      0.1712
     82  C          6.7640   29.8490   20.0730 C.2   148  CYS148      0.2296
     83  O          6.8220   30.1970   18.9000 O.2   148  CYS148     -0.2864
     84  CB         5.7890   27.6210   20.5390 C.3   148  CYS148      0.0983
     85  SG         4.5560   26.6300   21.4650 S.3   148  CYS148     -0.0798
@<TRIPOS>BOND
     1    51    50    1
     2    50    47    1
     3    16    18   ar
     4    16    15   ar
     5    18    20   ar
     6    55    54    2
     7    47    46    1
     8    47    48    1
     9    52    53    1
    10    52    48   am
    11    56    53    1
    12    56    57    1
    13    15    14    1
    14    15    17   ar
    15    14    11    1
    16    20    19   ar
    17    59    57   ar
    18    59    61   ar
    19     1     2    1
    20    11    10    1
    21    11    12    1
    22    54    53    1
    23    54    62   am
    24    10     3   am
    25    63    62    1
    26    63    64    1
    27     3     2    1
    28     3     4    2
    29    48    49    2
    30    57    58   ar
    31     2     5    1
    32     8     7   ar
    33    27    26    1
    34    27    28    1
    35    64    65    2
    36    61    60   ar
    37    17    19   ar
    38    21    12   am
    39    21    22    1
    40    30    29    1
    41    12    13    2
    42    26    25    1
    43    58    60   ar
    44    25    22    1
    45     7     6    1
    46     7     9   ar
    47     5     6    1
    48    28    29    2
    49    29    31    1
    50    79    76    1
    51    22    23    1
    52    24    23    2
    53    23    32   am
    54    69    68    2
    55    83    82    2
    56    76    75    1
    57    76    77    1
    58    32    33    1
    59    40    41    2
    60    40    39    1
    61    68    75   am
    62    68    67    1
    63    66    67    1
    64    33    36    1
    65    33    34    1
    66    37    36    1
    67    80    77   am
    68    80    81    1
    69    77    78    2
    70    82    81    1
    71    67    70    1
    72    42    39    1
    73    42    43    1
    74    70    71    1
    75    39    38    1
    76    84    81    1
    77    84    85    1
    78    34    35    2
    79    71    72    1
    80    45    43   ar
    81    43    44   ar
    82    72    74   am
    83    72    73    2
