@<TRIPOS>MOLECULE
tmp/1pywB00.pdb
 133 131 0 0 0
SMALL
GASTEIGER

@<TRIPOS>ATOM
      1  N        -32.0030   52.4850   -6.5490 N.3     9  TRP9       -0.1241
      2  CA       -32.3990   51.8360   -5.3070 C.3     9  TRP9        0.1605
      3  C        -32.2940   52.8420   -4.1760 C.2     9  TRP9        0.2264
      4  O        -31.2650   53.4960   -4.0000 O.2     9  TRP9       -0.2867
      5  CB       -31.5060   50.6240   -5.0100 C.3     9  TRP9        0.0550
      6  CG       -31.7690   49.9560   -3.6790 C.ar    9  TRP9        0.0003
      7  CD1      -31.0430   50.1000   -2.5300 C.ar    9  TRP9        0.0946
      8  CD2      -32.8040   49.0070   -3.3810 C.ar    9  TRP9        0.0152
      9  NE1      -31.5550   49.2950   -1.5350 N.ar    9  TRP9       -0.2442
     10  CE2      -32.6340   48.6120   -2.0290 C.ar    9  TRP9        0.0810
     11  CE3      -33.8560   48.4490   -4.1220 C.ar    9  TRP9        0.0012
     12  CZ2      -33.4770   47.6810   -1.4050 C.ar    9  TRP9        0.0191
     13  CZ3      -34.6960   47.5220   -3.5010 C.ar    9  TRP9        0.0001
     14  CH2      -34.4980   47.1480   -2.1520 C.ar    9  TRP9        0.0015
     15  N        -33.1740   53.5800    0.0930 N.3    11  LEU11      -0.1245
     16  CA       -33.4450   53.0020    1.4040 C.3    11  LEU11       0.1561
     17  C        -33.7020   54.2130    2.2750 C.2    11  LEU11       0.2260
     18  O        -32.8670   55.1180    2.3430 O.2    11  LEU11      -0.2867
     19  CB       -32.2350   52.2190    1.9360 C.3    11  LEU11       0.0270
     20  CG       -32.2760   51.7900    3.4160 C.3    11  LEU11       0.0019
     21  CD1      -33.4910   50.9050    3.6900 C.3    11  LEU11       0.0001
     22  CD2      -30.9950   51.0450    3.7690 C.3    11  LEU11       0.0001
     23  N        -39.2700   52.0960    7.8370 N.3    28  GLU28      -0.1245
     24  CA       -38.1130   51.7440    7.0250 C.3    28  GLU28       0.1567
     25  C        -38.6420   51.3030    5.6560 C.2    28  GLU28       0.2260
     26  O        -39.4410   50.3740    5.5740 O.2    28  GLU28      -0.2867
     27  CB       -37.3470   50.5950    7.6940 C.3    28  GLU28       0.0388
     28  CG       -36.1910   50.0360    6.8810 C.3    28  GLU28       0.1160
     29  CD       -35.5060   48.8650    7.5730 C.2    28  GLU28       0.3649
     30  OE1      -35.6220   48.7430    8.8100 O.co2  28  GLU28      -0.2457
     31  OE2      -34.8330   48.0740    6.8870 O.co2  28  GLU28      -0.2457
     32  N        -41.4500   43.1670    8.9230 N.3    47  TYR47      -0.1241
     33  CA       -41.3840   43.5820    7.5290 C.3    47  TYR47       0.1605
     34  C        -42.6020   43.0620    6.7670 C.2    47  TYR47       0.2264
     35  O        -43.0650   41.9400    7.0010 O.2    47  TYR47      -0.2867
     36  CB       -40.1150   43.0310    6.8730 C.3    47  TYR47       0.0534
     37  CG       -38.8420   43.7360    7.2780 C.ar   47  TYR47      -0.0201
     38  CD1      -38.3540   44.8130    6.5380 C.ar   47  TYR47      -0.0009
     39  CD2      -38.1160   43.3200    8.3910 C.ar   47  TYR47      -0.0009
     40  CE1      -37.1710   45.4560    6.8930 C.ar   47  TYR47       0.0417
     41  CE2      -36.9300   43.9600    8.7590 C.ar   47  TYR47       0.0417
     42  CZ       -36.4640   45.0250    8.0050 C.ar   47  TYR47       0.1957
     43  OH       -35.2980   45.6590    8.3640 O.3    47  TYR47      -0.2866
     44  N        -37.9690   39.4160    0.2780 N.3    57  ASP57      -0.1239
     45  CA       -37.2380   40.1900    1.2710 C.3    57  ASP57       0.1674
     46  C        -37.9210   40.2460    2.6380 C.2    57  ASP57       0.2266
     47  O        -37.2800   40.0100    3.6600 O.2    57  ASP57      -0.2867
     48  CB       -36.9960   41.5880    0.7190 C.3    57  ASP57       0.1410
     49  CG       -36.4300   41.5540   -0.6970 C.2    57  ASP57       0.3668
     50  OD1      -35.5430   40.7110   -0.9630 O.co2  57  ASP57      -0.2456
     51  OD2      -36.8690   42.3650   -1.5410 O.co2  57  ASP57      -0.2456
     52  N        -37.4470   36.8610    4.1400 N.3    60  TYR60      -0.1227
     53  CA       -36.0820   36.6150    4.5640 C.3    60  TYR60       0.1736
     54  C        -35.7230   37.4420    5.7980 C.2    60  TYR60       0.2595
     55  O        -35.1580   36.9250    6.7620 O.2    60  TYR60      -0.2718
     56  CB       -35.1130   36.9480    3.4340 C.3    60  TYR60       0.0548
     57  CG       -33.6680   36.9130    3.8520 C.ar   60  TYR60      -0.0200
     58  CD1      -33.0820   35.7340    4.3180 C.ar   60  TYR60      -0.0009
     59  CD2      -32.8770   38.0570    3.7710 C.ar   60  TYR60      -0.0009
     60  CE1      -31.7390   35.6980    4.6930 C.ar   60  TYR60       0.0417
     61  CE2      -31.5380   38.0340    4.1400 C.ar   60  TYR60       0.0417
     62  CZ       -30.9730   36.8530    4.6000 C.ar   60  TYR60       0.1957
     63  OH       -29.6440   36.8370    4.9610 O.3    60  TYR60      -0.2866
     64  N        -36.0480   38.7280    5.7740 N.am   61  TRP61      -0.1976
     65  CA       -35.7240   39.5760    6.9130 C.3    61  TRP61       0.1640
     66  C        -36.4980   39.1870    8.1790 C.2    61  TRP61       0.2290
     67  O        -35.9570   39.2370    9.2850 O.2    61  TRP61      -0.2864
     68  CB       -35.9490   41.0530    6.5620 C.3    61  TRP61       0.0576
     69  CG       -34.8930   41.6070    5.6080 C.ar   61  TRP61       0.0006
     70  CD1      -33.5800   41.2390    5.5370 C.ar   61  TRP61       0.0946
     71  CD2      -35.0670   42.6570    4.6420 C.ar   61  TRP61       0.0152
     72  NE1      -32.9210   41.9940    4.5860 N.ar   61  TRP61      -0.2442
     73  CE2      -33.8110   42.8710    4.0240 C.ar   61  TRP61       0.0810
     74  CE3      -36.1610   43.4370    4.2420 C.ar   61  TRP61       0.0012
     75  CZ2      -33.6200   43.8330    3.0250 C.ar   61  TRP61       0.0191
     76  CZ3      -35.9710   44.3990    3.2470 C.ar   61  TRP61       0.0001
     77  CH2      -34.7070   44.5860    2.6520 C.ar   61  TRP61       0.0015
     78  N        -32.2730   41.0040   13.6420 N.3    67  LEU67      -0.1245
     79  CA       -32.6660   42.1450   12.8280 C.3    67  LEU67       0.1561
     80  C        -34.0110   42.6670   13.3330 C.2    67  LEU67       0.2260
     81  O        -34.1960   43.8640   13.5500 O.2    67  LEU67      -0.2867
     82  CB       -32.7840   41.7200   11.3560 C.3    67  LEU67       0.0270
     83  CG       -33.2610   42.7800   10.3530 C.3    67  LEU67       0.0019
     84  CD1      -32.3050   43.9720   10.3560 C.3    67  LEU67       0.0001
     85  CD2      -33.3320   42.1560    8.9600 C.3    67  LEU67       0.0001
     86  N        -34.8130   46.3660   15.0070 N.3    71  ARG71      -0.1245
     87  CA       -35.8250   47.2040   14.3750 C.3    71  ARG71       0.1563
     88  C        -36.9390   47.5770   15.3530 C.2    71  ARG71       0.2260
     89  O        -37.4190   48.7080   15.3430 O.2    71  ARG71      -0.2867
     90  CB       -36.4270   46.4850   13.1610 C.3    71  ARG71       0.0307
     91  CG       -35.9080   46.9730   11.8030 C.3    71  ARG71       0.0489
     92  CD       -34.3830   47.0170   11.7270 C.3    71  ARG71       0.2205
     93  NE       -33.9160   47.4260   10.4020 N.pl3  71  ARG71      -0.0865
     94  CZ       -32.6400   47.6310   10.0830 C.cat  71  ARG71       0.5346
     95  NH1      -32.3070   47.9930    8.8540 N.pl3  71  ARG71       0.1354
     96  NH2      -31.6920   47.4800   10.9940 N.pl3  71  ARG71       0.1354
     97  N        -33.6880   53.6110   20.4690 N.3    77  THR77      -0.1203
     98  CA       -32.2510   53.7910   20.2260 C.3    77  THR77       0.1994
     99  C        -31.8810   54.6370   19.0150 C.2    77  THR77       0.2617
    100  O        -30.8020   55.2300   18.9710 O.2    77  THR77      -0.2717
    101  CB       -31.5380   52.4340   20.0690 C.3    77  THR77       0.1784
    102  OG1      -32.0060   51.7820   18.8790 O.3    77  THR77      -0.2211
    103  CG2      -31.8200   51.5430   21.2740 C.3    77  THR77       0.0376
    104  N        -32.7720   54.6850   18.0340 N.am   78  TYR78      -0.1975
    105  CA       -32.5360   55.4350   16.8110 C.3    78  TYR78       0.1639
    106  C        -33.3340   56.7290   16.7720 C.2    78  TYR78       0.2290
    107  O        -32.7620   57.8220   16.8070 O.2    78  TYR78      -0.2864
    108  CB       -32.8960   54.5580   15.6050 C.3    78  TYR78       0.0560
    109  CG       -32.8110   55.2410   14.2570 C.ar   78  TYR78      -0.0198
    110  CD1      -31.5870   55.6870   13.7470 C.ar   78  TYR78      -0.0009
    111  CD2      -33.9520   55.4100   13.4770 C.ar   78  TYR78      -0.0009
    112  CE1      -31.5050   56.2830   12.4820 C.ar   78  TYR78       0.0417
    113  CE2      -33.8850   56.0030   12.2120 C.ar   78  TYR78       0.0417
    114  CZ       -32.6610   56.4330   11.7220 C.ar   78  TYR78       0.1957
    115  OH       -32.6070   56.9910   10.4670 O.3    78  TYR78      -0.2866
    116  N        -33.3820   58.8000   20.1840 N.3    81  HIS81      -0.1226
    117  CA       -32.0160   59.2520   20.3920 C.3    81  HIS81       0.1752
    118  C        -31.6710   60.4260   19.4780 C.2    81  HIS81       0.2596
    119  O        -31.1630   61.4530   19.9410 O.2    81  HIS81      -0.2718
    120  CB       -31.0090   58.1350   20.1400 C.3    81  HIS81       0.0759
    121  CG       -29.5860   58.5960   20.2040 C.ar   81  HIS81       0.0818
    122  ND1      -29.0220   59.1060   21.3530 N.ar   81  HIS81      -0.2268
    123  CD2      -28.6230   58.6580   19.2540 C.ar   81  HIS81       0.1154
    124  CE1      -27.7720   59.4600   21.1100 C.ar   81  HIS81       0.1986
    125  NE2      -27.5050   59.1980   19.8440 N.ar   81  HIS81      -0.2212
    126  N        -31.9330   60.2700   18.1810 N.am   82  ASN82      -0.1974
    127  CA       -31.6180   61.3350   17.2300 C.3    82  ASN82       0.1688
    128  C        -32.4230   62.5970   17.4990 C.2    82  ASN82       0.2292
    129  O        -31.9400   63.7050   17.2710 O.2    82  ASN82      -0.2864
    130  CB       -31.8220   60.8650   15.7810 C.3    82  ASN82       0.1181
    131  CG       -30.7180   59.9300   15.3180 C.2    82  ASN82       0.2629
    132  OD1      -29.5990   59.9890   15.8210 O.2    82  ASN82      -0.2716
    133  ND2      -31.0230   59.0710   14.3500 N.am   82  ASN82      -0.0877
@<TRIPOS>BOND
     1     1     2    1
     2     2     5    1
     3     2     3    1
     4     5     6    1
     5     3     4    2
     6    11    13   ar
     7    11     8   ar
     8     6     8   ar
     9     6     7   ar
    10    13    14   ar
    11     8    10   ar
    12     7     9   ar
    13    14    12   ar
    14    10     9   ar
    15    10    12   ar
    16    51    49   ar
    17    50    49   ar
    18    49    48    1
    19    15    16    1
    20    44    45    1
    21    48    45    1
    22    45    46    1
    23    16    19    1
    24    16    17    1
    25    19    20    1
    26    17    18    2
    27    46    47    2
    28    77    75   ar
    29    77    76   ar
    30    75    73   ar
    31    76    74   ar
    32    20    21    1
    33    20    22    1
    34    56    57    1
    35    56    53    1
    36    59    57   ar
    37    59    61   ar
    38    57    58   ar
    39    73    72   ar
    40    73    71   ar
    41    52    53    1
    42    61    62   ar
    43    74    71   ar
    44    58    60   ar
    45    53    54    1
    46    72    70   ar
    47    62    60   ar
    48    62    63    1
    49    71    69   ar
    50    70    69   ar
    51    26    25    2
    52    69    68    1
    53    25    24    1
    54    64    54   am
    55    64    65    1
    56    54    55    2
    57    38    40   ar
    58    38    37   ar
    59    68    65    1
    60    34    35    2
    61    34    33    1
    62    36    37    1
    63    36    33    1
    64    28    29    1
    65    28    27    1
    66    31    29   ar
    67    40    42   ar
    68    65    66    1
    69    24    27    1
    70    24    23    1
    71    37    39   ar
    72    33    32    1
    73    29    30   ar
    74    42    43    1
    75    42    41   ar
    76    66    67    2
    77    39    41   ar
    78    95    94    1
    79    85    83    1
    80    94    93    2
    81    94    96    1
    82    83    84    1
    83    83    82    1
    84    93    92    1
    85   115   114    1
    86    82    79    1
    87   114   113   ar
    88   114   112   ar
    89    92    91    1
    90    91    90    1
    91   113   111   ar
    92   112   110   ar
    93    79    80    1
    94    79    78    1
    95    90    87    1
    96    80    81    2
    97   111   109   ar
    98   110   109   ar
    99   109   108    1
   100   133   131   am
   101    87    86    1
   102    87    88    1
   103   131   130    1
   104   131   132    2
   105    89    88    2
   106   108   105    1
   107   130   127    1
   108   106   107    2
   109   106   105    1
   110   105   104    1
   111   127   128    1
   112   127   126    1
   113   129   128    2
   114   104    99   am
   115   126   118   am
   116   102   101    1
   117   100    99    2
   118    99    98    1
   119   123   125   ar
   120   123   121   ar
   121   118   119    2
   122   118   117    1
   123   125   124   ar
   124   101    98    1
   125   101   103    1
   126   120   121    1
   127   120   117    1
   128   116   117    1
   129   121   122   ar
   130    98    97    1
   131   124   122   ar
