@<TRIPOS>MOLECULE
tmp/1pz2B00.pdb
 137 131 0 0 0
SMALL
GASTEIGER

@<TRIPOS>ATOM
      1  N         63.2560   37.1330   83.8150 N.3    23  PHE23      -0.1241
      2  CA        64.1870   38.2320   83.9700 C.3    23  PHE23       0.1605
      3  C         63.6410   39.1490   85.0580 C.2    23  PHE23       0.2264
      4  O         62.4280   39.5190   85.0520 O.2    23  PHE23      -0.2867
      5  CB        64.3330   38.9200   82.5790 C.3    23  PHE23       0.0534
      6  CG        65.1400   40.2260   82.5600 C.ar   23  PHE23      -0.0203
      7  CD1       66.1720   40.4750   83.4680 C.ar   23  PHE23      -0.0042
      8  CD2       64.8880   41.1750   81.5560 C.ar   23  PHE23      -0.0042
      9  CE1       66.8720   41.6550   83.4210 C.ar   23  PHE23      -0.0003
     10  CE2       65.5870   42.3730   81.4940 C.ar   23  PHE23      -0.0003
     11  CZ        66.5930   42.6040   82.4250 C.ar   23  PHE23      -0.0000
     12  N         65.1640   42.7760   86.7710 N.3    25  GLU25      -0.1245
     13  CA        66.0880   43.8750   86.8950 C.3    25  GLU25       0.1567
     14  C         65.8350   44.6710   88.1700 C.2    25  GLU25       0.2260
     15  O         64.6920   44.7060   88.6950 O.2    25  GLU25      -0.2867
     16  CB        65.8680   44.7720   85.6940 C.3    25  GLU25       0.0388
     17  CG        66.8230   45.9620   85.5460 C.3    25  GLU25       0.1160
     18  CD        66.7810   46.5780   84.1500 C.2    25  GLU25       0.3649
     19  OE1       66.0570   46.0810   83.2700 O.co2  25  GLU25      -0.2457
     20  OE2       67.5050   47.5760   83.9080 O.co2  25  GLU25      -0.2457
     21  N         64.7980   47.4740   88.7330 N.3    27  LEU27      -0.1245
     22  CA        63.9720   48.3720   87.9450 C.3    27  LEU27       0.1561
     23  C         62.6040   48.4160   88.6200 C.2    27  LEU27       0.2260
     24  O         61.9960   47.3790   88.8540 O.2    27  LEU27      -0.2867
     25  CB        63.8010   47.8850   86.4830 C.3    27  LEU27       0.0270
     26  CG        63.3270   48.8850   85.4160 C.3    27  LEU27       0.0019
     27  CD1       63.4000   48.2540   84.0450 C.3    27  LEU27       0.0001
     28  CD2       61.8820   49.3720   85.6590 C.3    27  LEU27       0.0001
     29  N         69.9680   43.8700   81.7570 N.3    69  GLY69      -0.1210
     30  CA        69.2050   45.1140   81.7600 C.3    69  GLY69       0.1956
     31  C         70.0800   46.3480   81.8360 C.2    69  GLY69       0.2611
     32  O         71.2860   46.2770   82.1600 O.2    69  GLY69      -0.2717
     33  N         69.4740   47.4690   81.4690 N.am   70  ASN70      -0.1974
     34  CA        70.1460   48.7640   81.4040 C.3    70  ASN70       0.1688
     35  C         70.7920   49.1490   82.7310 C.2    70  ASN70       0.2292
     36  O         71.8220   49.8410   82.7650 O.2    70  ASN70      -0.2864
     37  CB        69.1460   49.8520   80.9790 C.3    70  ASN70       0.1181
     38  CG        68.6390   49.6580   79.5470 C.2    70  ASN70       0.2629
     39  OD1       69.2350   48.9150   78.7430 O.2    70  ASN70      -0.2716
     40  ND2       67.5510   50.3310   79.2250 N.am   70  ASN70      -0.0877
     41  N         67.3350   54.2090   85.0270 N.3    95  TRP95      -0.1241
     42  CA        65.9100   54.4620   85.3190 C.3    95  TRP95       0.1605
     43  C         65.7230   55.6600   86.2390 C.2    95  TRP95       0.2264
     44  O         64.6510   55.8280   86.8460 O.2    95  TRP95      -0.2867
     45  CB        65.2990   53.2020   85.9440 C.3    95  TRP95       0.0550
     46  CG        65.4890   52.0060   85.0080 C.ar   95  TRP95       0.0003
     47  CD1       66.3430   50.9370   85.1630 C.ar   95  TRP95       0.0946
     48  CD2       64.9030   51.8550   83.7350 C.ar   95  TRP95       0.0152
     49  NE1       66.2850   50.1220   84.0550 N.ar   95  TRP95      -0.2442
     50  CE2       65.3800   50.6460   83.1800 C.ar   95  TRP95       0.0810
     51  CE3       63.9830   52.5980   83.0070 C.ar   95  TRP95       0.0012
     52  CZ2       64.9790   50.1890   81.9500 C.ar   95  TRP95       0.0191
     53  CZ3       63.5820   52.1270   81.7730 C.ar   95  TRP95       0.0001
     54  CH2       64.0870   50.9450   81.2560 C.ar   95  TRP95       0.0015
     55  N         75.0730   44.2700   79.1140 N.3   170  ASN170     -0.1225
     56  CA        73.7330   44.3650   78.5760 C.3   170  ASN170      0.1785
     57  C         73.8990   45.0260   77.2180 C.2   170  ASN170      0.2597
     58  O         75.0160   45.5540   76.9380 O.2   170  ASN170     -0.2718
     59  CB        72.8900   45.1880   79.5270 C.3   170  ASN170      0.1169
     60  CG        71.4680   45.3490   79.0690 C.2   170  ASN170      0.2627
     61  OD1       70.7380   44.3560   78.9330 O.2   170  ASN170     -0.2716
     62  ND2       71.0590   46.6090   78.8240 N.am  170  ASN170     -0.0877
     63  N         72.8590   44.9860   76.3630 N.am  171  ALA171     -0.1979
     64  CA        72.9700   45.5230   75.0090 C.3   171  ALA171      0.1597
     65  C         73.4900   46.9490   75.0570 C.2   171  ALA171      0.2287
     66  O         72.8350   47.8090   75.6270 O.2   171  ALA171     -0.2864
     67  CB        71.6170   45.4780   74.2810 C.3   171  ALA171      0.0319
     68  N         66.4340   40.6120   71.4300 N.3   240  HIS240     -0.1241
     69  CA        65.4800   41.3150   72.2740 C.3   240  HIS240      0.1621
     70  C         64.3680   41.7920   71.3410 C.2   240  HIS240      0.2264
     71  O         64.6330   42.3040   70.2540 O.2   240  HIS240     -0.2867
     72  CB        66.0860   42.5660   72.9190 C.3   240  HIS240      0.0745
     73  CG        67.1220   42.3230   73.9800 C.ar  240  HIS240      0.0817
     74  ND1       67.7190   43.3250   74.7140 N.ar  240  HIS240     -0.2268
     75  CD2       67.5970   41.1560   74.4910 C.ar  240  HIS240      0.1154
     76  CE1       68.5580   42.7930   75.5920 C.ar  240  HIS240      0.1986
     77  NE2       68.4880   41.4760   75.4950 N.ar  240  HIS240     -0.2212
     78  N         60.1960   43.6530   71.8230 N.3   242  TYR242     -0.1241
     79  CA        58.9230   44.0060   72.4640 C.3   242  TYR242      0.1605
     80  C         57.9120   44.4090   71.4030 C.2   242  TYR242      0.2264
     81  O         58.2690   44.9460   70.3490 O.2   242  TYR242     -0.2867
     82  CB        59.0610   45.1320   73.4730 C.3   242  TYR242      0.0534
     83  CG        60.0390   44.8390   74.5880 C.ar  242  TYR242     -0.0201
     84  CD1       59.6550   44.0820   75.6870 C.ar  242  TYR242     -0.0009
     85  CD2       61.3740   45.2790   74.5200 C.ar  242  TYR242     -0.0009
     86  CE1       60.5090   43.8020   76.6910 C.ar  242  TYR242      0.0417
     87  CE2       62.2620   44.9840   75.5330 C.ar  242  TYR242      0.0417
     88  CZ        61.8270   44.2460   76.6250 C.ar  242  TYR242      0.1957
     89  OH        62.6850   43.9240   77.6570 O.3   242  TYR242     -0.2866
     90  N         65.3030   38.9790   76.1580 N.3   290  GLU290     -0.1245
     91  CA        64.1590   39.8510   76.4380 C.3   290  GLU290      0.1567
     92  C         63.0800   39.6760   75.3990 C.2   290  GLU290      0.2260
     93  O         63.2860   39.9060   74.2010 O.2   290  GLU290     -0.2867
     94  CB        64.5410   41.3430   76.5280 C.3   290  GLU290      0.0388
     95  CG        65.4040   41.6480   77.7390 C.3   290  GLU290      0.1160
     96  CD        65.9110   43.0920   77.8270 C.2   290  GLU290      0.3649
     97  OE1       65.2870   44.0270   77.2920 O.co2 290  GLU290     -0.2457
     98  OE2       66.9830   43.2650   78.4440 O.co2 290  GLU290     -0.2457
     99  N         55.0900   45.2210   75.4390 N.3   294  TRP294     -0.1241
    100  CA        55.3650   46.3800   76.3040 C.3   294  TRP294      0.1605
    101  C         54.9520   47.6730   75.5730 C.2   294  TRP294      0.2264
    102  O         55.5150   48.0050   74.5300 O.2   294  TRP294     -0.2867
    103  CB        56.8480   46.4140   76.7320 C.3   294  TRP294      0.0550
    104  CG        57.3610   47.7160   77.3580 C.ar  294  TRP294      0.0003
    105  CD1       56.6220   48.7140   77.9170 C.ar  294  TRP294      0.0946
    106  CD2       58.7320   48.1380   77.4670 C.ar  294  TRP294      0.0152
    107  NE1       57.4400   49.7200   78.3710 N.ar  294  TRP294     -0.2442
    108  CE2       58.7390   49.4010   78.0930 C.ar  294  TRP294      0.0810
    109  CE3       59.9650   47.5860   77.0660 C.ar  294  TRP294      0.0012
    110  CZ2       59.9270   50.1270   78.3400 C.ar  294  TRP294      0.0191
    111  CZ3       61.1540   48.3040   77.3310 C.ar  294  TRP294      0.0001
    112  CH2       61.1150   49.5580   77.9570 C.ar  294  TRP294      0.0015
    113  N         57.0980   50.8780   84.2200 N.3   314  LEU314     -0.1245
    114  CA        56.8770   49.7870   83.2840 C.3   314  LEU314      0.1561
    115  C         55.7100   48.8480   83.6770 C.2   314  LEU314      0.2260
    116  O         55.6990   47.6650   83.2920 O.2   314  LEU314     -0.2867
    117  CB        58.1890   48.9950   83.0580 C.3   314  LEU314      0.0270
    118  CG        59.1210   49.5170   81.9480 C.3   314  LEU314      0.0019
    119  CD1       59.7910   50.7850   82.3890 C.3   314  LEU314      0.0001
    120  CD2       60.1910   48.4750   81.5900 C.3   314  LEU314      0.0001
    121  N         59.3040   41.3130   82.0310 N.3   347  GLN347     -0.1245
    122  CA        60.0720   40.7900   83.1900 C.3   347  GLN347      0.1566
    123  C         59.1020   39.9960   84.1010 C.2   347  GLN347      0.2260
    124  O         57.9070   39.8830   83.7930 O.2   347  GLN347     -0.2867
    125  CB        60.7580   41.9210   83.9700 C.3   347  GLN347      0.0367
    126  CG        61.8850   42.5890   83.1800 C.3   347  GLN347      0.0905
    127  CD        62.6750   43.6370   83.9500 C.2   347  GLN347      0.2608
    128  OE1       62.7180   43.6200   85.1810 O.2   347  GLN347     -0.2717
    129  NE2       63.3460   44.5330   83.2130 N.am  347  GLN347     -0.0878
    130  N         56.5180   45.0640   83.4390 N.3   352  ILE352     -0.1245
    131  CA        56.0380   44.3850   82.2570 C.3   352  ILE352      0.1561
    132  C         55.9630   42.8790   82.5010 C.2   352  ILE352      0.2260
    133  O         56.6410   42.0880   81.8300 O.2   352  ILE352     -0.2867
    134  CB        56.8470   44.7460   80.9610 C.3   352  ILE352      0.0252
    135  CG1       58.3550   44.7810   81.2080 C.3   352  ILE352      0.0019
    136  CG2       56.3690   46.1080   80.3920 C.3   352  ILE352      0.0019
    137  CD1       59.1420   44.9400   79.9480 C.3   352  ILE352      0.0001
@<TRIPOS>BOND
     1    71    70    2
     2    81    80    2
     3    70    69    1
     4    80    79    1
     5    68    69    1
     6    78    79    1
     7    69    72    1
     8    79    82    1
     9    72    73    1
    10    82    83    1
    11    73    75   ar
    12    73    74   ar
    13    93    92    2
    14    67    64    1
    15    75    77   ar
    16    85    83   ar
    17    85    87   ar
    18   102   101    2
    19    83    84   ar
    20    74    76   ar
    21    64    65    1
    22    64    63    1
    23    65    66    2
    24    92    91    1
    25    99   100    1
    26    77    76   ar
    27    87    88   ar
    28   101   100    1
    29    84    86   ar
    30    90    91    1
    31   100   103    1
    32    63    57   am
    33    91    94    1
    34    94    95    1
    35    88    86   ar
    36    88    89    1
    37   103   104    1
    38    58    57    2
    39   109   111   ar
    40   109   106   ar
    41    57    56    1
    42    97    96   ar
    43   111   112   ar
    44   104   106   ar
    45   104   105   ar
    46   106   108   ar
    47    95    96    1
    48    96    98   ar
    49   105   107   ar
    50   112   110   ar
    51   108   110   ar
    52   108   107   ar
    53    56    55    1
    54    56    59    1
    55    39    38    2
    56    62    60   am
    57    61    60    2
    58    60    59    1
    59    40    38   am
    60    38    37    1
    61   137   135    1
    62   136   134    1
    63   134   135    1
    64   134   131    1
    65    37    34    1
    66    54    53   ar
    67    54    52   ar
    68    34    33    1
    69    34    35    1
    70    33    31   am
    71    10     8   ar
    72    10    11   ar
    73     8     6   ar
    74   120   118    1
    75    29    30    1
    76    30    31    1
    77    53    51   ar
    78   133   132    2
    79    31    32    2
    80   118   119    1
    81   118   117    1
    82    52    50   ar
    83   121   122    1
    84   131   132    1
    85   131   130    1
    86    11     9   ar
    87     6     5    1
    88     6     7   ar
    89     5     2    1
    90    35    36    2
    91    51    48   ar
    92   117   114    1
    93   126   127    1
    94   126   125    1
    95    50    48   ar
    96    50    49   ar
    97   122   125    1
    98   122   123    1
    99   129   127   am
   100    19    18   ar
   101   114   115    1
   102   114   113    1
   103   116   115    2
   104     9     7   ar
   105    48    46   ar
   106   124   123    2
   107     1     2    1
   108    20    18   ar
   109   127   128    2
   110     2     3    1
   111    27    26    1
   112    49    47   ar
   113    18    17    1
   114    46    47   ar
   115    46    45    1
   116    41    42    1
   117     4     3    2
   118    42    45    1
   119    42    43    1
   120    26    28    1
   121    26    25    1
   122    17    16    1
   123    16    13    1
   124    43    44    2
   125    25    22    1
   126    12    13    1
   127    13    14    1
   128    22    23    1
   129    22    21    1
   130    14    15    2
   131    23    24    2
