@<TRIPOS>MOLECULE
tmp/1pz4A00.pdb
 217 203 0 0 0
SMALL
GASTEIGER

@<TRIPOS>ATOM
      1  N         20.4590   36.6340   57.1670 N.3    15  ILE15      -0.1245
      2  CA        20.8810   35.7320   56.0940 C.3    15  ILE15       0.1561
      3  C         20.6190   36.3850   54.7470 C.2    15  ILE15       0.2260
      4  O         21.5150   36.3660   53.9120 O.2    15  ILE15      -0.2867
      5  CB        20.1730   34.3570   56.1930 C.3    15  ILE15       0.0252
      6  CG1       20.6520   33.6250   57.4750 C.3    15  ILE15       0.0019
      7  CG2       20.4120   33.5390   54.9090 C.3    15  ILE15       0.0019
      8  CD1       19.7890   32.4030   57.8120 C.3    15  ILE15       0.0001
      9  N         23.3490   38.7090   54.0560 N.3    18  ARG18      -0.1231
     10  CA        24.5840   37.9990   53.7450 C.3    18  ARG18       0.1694
     11  C         24.6300   37.5940   52.2660 C.2    18  ARG18       0.2591
     12  O         25.6950   37.5760   51.6410 O.2    18  ARG18      -0.2718
     13  CB        24.7960   36.8080   54.7140 C.3    18  ARG18       0.0321
     14  CG        25.9790   35.9230   54.3320 C.3    18  ARG18       0.0489
     15  CD        27.3320   36.6420   54.4280 C.3    18  ARG18       0.2205
     16  NE        28.4540   35.7410   54.1720 N.pl3  18  ARG18      -0.0865
     17  CZ        28.8570   35.3870   52.9540 C.cat  18  ARG18       0.5346
     18  NH1       28.3100   35.8550   51.8050 N.pl3  18  ARG18       0.1354
     19  NH2       29.8840   34.5220   52.8900 N.pl3  18  ARG18       0.1354
     20  N         23.4530   37.2520   51.7000 N.am   19  LEU19      -0.1980
     21  CA        23.3590   36.8340   50.3020 C.3    19  LEU19       0.1596
     22  C         23.7660   37.9160   49.3410 C.2    19  LEU19       0.2287
     23  O         24.1510   37.6420   48.2210 O.2    19  LEU19      -0.2864
     24  CB        22.0080   36.2310   49.8790 C.3    19  LEU19       0.0297
     25  CG        21.5360   35.0660   50.7410 C.3    19  LEU19       0.0022
     26  CD1       20.2960   34.4710   50.1090 C.3    19  LEU19       0.0001
     27  CD2       22.5720   33.9630   50.8230 C.3    19  LEU19       0.0001
     28  N         27.6340   37.5610   48.0960 N.3    22  ILE22      -0.1231
     29  CA        28.1930   36.3510   47.5460 C.3    22  ILE22       0.1692
     30  C         29.0500   36.6710   46.3320 C.2    22  ILE22       0.2592
     31  O         28.7490   37.6110   45.5920 O.2    22  ILE22      -0.2718
     32  CB        26.9990   35.4930   47.1740 C.3    22  ILE22       0.0266
     33  CG1       26.5910   34.7310   48.4270 C.3    22  ILE22       0.0019
     34  CG2       27.2640   34.6270   45.9430 C.3    22  ILE22       0.0020
     35  CD1       25.2980   33.9790   48.2110 C.3    22  ILE22       0.0001
     36  N         30.1490   35.9290   46.1550 N.am   23  ASP23      -0.1974
     37  CA        31.0230   36.1370   45.0130 C.3    23  ASP23       0.1709
     38  C         30.6290   35.1560   43.9370 C.2    23  ASP23       0.2293
     39  O         30.8400   33.9680   44.0230 O.2    23  ASP23      -0.2864
     40  CB        32.4790   35.9220   45.3460 C.3    23  ASP23       0.1436
     41  CG        33.3700   36.1260   44.1510 C.2    23  ASP23       0.3671
     42  OD1       32.9760   36.3590   43.0070 O.co2  23  ASP23      -0.2456
     43  OD2       34.6200   35.9630   44.5030 O.co2  23  ASP23      -0.2456
     44  N         33.0490   32.7260   42.6430 N.3    26  ASN26      -0.1225
     45  CA        33.6140   31.7180   43.4680 C.3    26  ASN26       0.1785
     46  C         32.5620   31.1790   44.4120 C.2    26  ASN26       0.2597
     47  O         32.5750   31.4320   45.6240 O.2    26  ASN26      -0.2718
     48  CB        34.8390   32.1960   44.2810 C.3    26  ASN26       0.1169
     49  CG        35.4450   31.0280   45.0600 C.2    26  ASN26       0.2627
     50  OD1       35.6350   29.9390   44.4950 O.2    26  ASN26      -0.2716
     51  ND2       35.7220   31.1930   46.3590 N.am   26  ASN26      -0.0877
     52  N         31.6530   30.4280   43.8160 N.am   27  ARG27      -0.1966
     53  CA        30.5930   29.8450   44.6090 C.3    27  ARG27       0.1729
     54  C         31.1320   28.7230   45.4870 C.2    27  ARG27       0.2616
     55  O         32.0410   27.9650   45.0840 O.2    27  ARG27      -0.2715
     56  CB        29.4330   29.4450   43.7070 C.3    27  ARG27       0.0348
     57  CG        28.7360   30.6350   43.0350 C.3    27  ARG27       0.0492
     58  CD        28.2090   31.6930   44.0260 C.3    27  ARG27       0.2205
     59  NE        27.5710   31.0710   45.2160 N.pl3  27  ARG27      -0.0865
     60  CZ        26.3430   30.4970   45.2170 C.cat  27  ARG27       0.5346
     61  NH1       25.5540   30.5060   44.1280 N.pl3  27  ARG27       0.1354
     62  NH2       25.8710   29.9320   46.3230 N.pl3  27  ARG27       0.1354
     63  N         30.5760   28.6110   46.6940 N.am   28  GLN28      -0.1963
     64  CA        31.0360   27.5930   47.6220 C.3    28  GLN28       0.1733
     65  C         29.9980   26.5560   47.9960 C.2    28  GLN28       0.2616
     66  O         30.3500   25.3920   48.1500 O.2    28  GLN28      -0.2715
     67  CB        31.4840   28.2890   48.9220 C.3    28  GLN28       0.0408
     68  CG        32.5930   29.3390   48.6730 C.3    28  GLN28       0.0908
     69  CD        33.8260   28.8650   49.3660 C.2    28  GLN28       0.2608
     70  OE1       34.0530   29.2150   50.5390 O.2    28  GLN28      -0.2717
     71  NE2       34.5310   27.9850   48.6610 N.am   28  GLN28      -0.0878
     72  N         28.7450   26.9800   48.1820 N.am   29  VAL29      -0.1977
     73  CA        27.6580   26.0560   48.5760 C.3    29  VAL29       0.1596
     74  C         26.4590   26.3180   47.6570 C.2    29  VAL29       0.2287
     75  O         25.8780   27.4040   47.7140 O.2    29  VAL29      -0.2864
     76  CB        27.2760   26.2360   50.0500 C.3    29  VAL29       0.0276
     77  CG1       26.1760   25.2400   50.4610 C.3    29  VAL29       0.0022
     78  CG2       28.5170   26.1600   50.9650 C.3    29  VAL29       0.0022
     79  N         13.8230   25.4890   56.1240 N.3    35  PHE35      -0.1241
     80  CA        13.8080   25.5890   57.5840 C.3    35  PHE35       0.1605
     81  C         12.3540   25.6650   58.0260 C.2    35  PHE35       0.2264
     82  O         11.6140   26.5540   57.5980 O.2    35  PHE35      -0.2867
     83  CB        14.5180   26.8980   58.0460 C.3    35  PHE35       0.0534
     84  CG        15.9850   26.9910   57.6530 C.ar   35  PHE35      -0.0203
     85  CD1       16.3270   27.4670   56.3850 C.ar   35  PHE35      -0.0042
     86  CD2       16.9950   26.5740   58.5320 C.ar   35  PHE35      -0.0042
     87  CE1       17.6710   27.5730   56.0140 C.ar   35  PHE35      -0.0003
     88  CE2       18.3410   26.6220   58.1610 C.ar   35  PHE35      -0.0003
     89  CZ        18.6550   27.1440   56.9050 C.ar   35  PHE35      -0.0000
     90  N         15.9410   28.5580   51.5480 N.3    49  MET49      -0.1245
     91  CA        17.1940   29.2470   51.1820 C.3    49  MET49       0.1570
     92  C         17.7870   28.4680   50.0060 C.2    49  MET49       0.2261
     93  O         18.3180   27.3540   50.1260 O.2    49  MET49      -0.2867
     94  CB        18.1770   29.2790   52.3360 C.3    49  MET49       0.0387
     95  CG        19.5000   29.9530   51.9610 C.3    49  MET49       0.0595
     96  SD        20.5600   30.1290   53.4400 S.3    49  MET49      -0.1393
     97  CE        20.9770   28.3960   53.7800 C.3    49  MET49       0.0692
     98  N         20.4830   28.3180   47.4640 N.3    51  LEU51      -0.1245
     99  CA        21.8260   28.7850   47.1700 C.3    51  LEU51       0.1561
    100  C         22.2850   28.4860   45.7610 C.2    51  LEU51       0.2260
    101  O         23.4040   28.8260   45.4100 O.2    51  LEU51      -0.2867
    102  CB        22.8660   28.3500   48.2440 C.3    51  LEU51       0.0270
    103  CG        22.6100   28.9610   49.6340 C.3    51  LEU51       0.0019
    104  CD1       23.5770   28.4700   50.7090 C.3    51  LEU51       0.0001
    105  CD2       22.5850   30.4840   49.6020 C.3    51  LEU51       0.0001
    106  N         15.3040   21.2440   57.6970 N.3    67  LEU67      -0.1245
    107  CA        15.6290   21.3240   59.1090 C.3    67  LEU67       0.1561
    108  C         14.4140   21.8160   59.8580 C.2    67  LEU67       0.2260
    109  O         13.8850   22.8750   59.5600 O.2    67  LEU67      -0.2867
    110  CB        16.7920   22.3220   59.3070 C.3    67  LEU67       0.0270
    111  CG        18.0980   22.0150   58.5480 C.3    67  LEU67       0.0019
    112  CD1       18.0780   22.5520   57.1250 C.3    67  LEU67       0.0001
    113  CD2       19.2480   22.7460   59.2210 C.3    67  LEU67       0.0001
    114  N         12.9620   22.8660   63.7180 N.3    69  MET69      -0.1245
    115  CA        13.3710   23.1590   65.1000 C.3    69  MET69       0.1570
    116  C         12.5790   24.3180   65.6420 C.2    69  MET69       0.2261
    117  O         12.0030   25.1240   64.8720 O.2    69  MET69      -0.2867
    118  CB        14.8590   23.5720   65.1630 C.3    69  MET69       0.0387
    119  CG        15.1260   24.9190   64.5100 C.3    69  MET69       0.0595
    120  SD        16.8920   25.0980   64.0920 S.3    69  MET69      -0.1393
    121  CE        16.7630   24.5890   62.3680 C.3    69  MET69       0.0692
    122  N         16.6030   27.7850   66.5320 N.3    74  MET74      -0.1245
    123  CA        17.0930   28.4600   65.3210 C.3    74  MET74       0.1570
    124  C         17.8380   29.7520   65.7160 C.2    74  MET74       0.2261
    125  O         18.9000   30.0540   65.1540 O.2    74  MET74      -0.2867
    126  CB        15.9590   28.8030   64.3330 C.3    74  MET74       0.0387
    127  CG        16.4240   29.5300   63.0690 C.3    74  MET74       0.0595
    128  SD        17.3760   28.4120   62.0060 S.3    74  MET74      -0.1393
    129  CE        18.6520   29.4660   61.3190 C.3    74  MET74       0.0692
    130  N         21.3200   28.7770   67.1680 N.3    77  ILE77      -0.1231
    131  CA        22.3230   28.3140   66.2400 C.3    77  ILE77       0.1692
    132  C         22.7500   29.4560   65.3300 C.2    77  ILE77       0.2592
    133  O         23.9380   29.6580   65.0600 O.2    77  ILE77      -0.2718
    134  CB        21.7270   27.2100   65.3820 C.3    77  ILE77       0.0266
    135  CG1       21.4580   25.9690   66.2150 C.3    77  ILE77       0.0019
    136  CG2       22.6090   26.8920   64.1820 C.3    77  ILE77       0.0020
    137  CD1       20.6740   24.9560   65.3650 C.3    77  ILE77       0.0001
    138  N         21.7660   30.2190   64.8510 N.am   78  GLY78      -0.1957
    139  CA        22.0580   31.3050   63.9440 C.3    78  GLY78       0.1869
    140  C         22.9200   32.4280   64.5170 C.2    78  GLY78       0.2309
    141  O         23.5360   33.1820   63.7530 O.2    78  GLY78      -0.2863
    142  N         25.4320   23.3400   65.8110 N.3    84  ALA84      -0.1245
    143  CA        24.4280   22.4840   65.1910 C.3    84  ALA84       0.1562
    144  C         24.4960   20.9990   65.5800 C.2    84  ALA84       0.2260
    145  O         23.4770   20.3060   65.7860 O.2    84  ALA84      -0.2867
    146  CB        24.4810   22.6360   63.6630 C.3    84  ALA84       0.0290
    147  N         16.8770   19.5140   67.1720 N.3    93  MET93      -0.1245
    148  CA        16.7790   19.7560   65.7430 C.3    93  MET93       0.1570
    149  C         16.6300   18.4300   64.9900 C.2    93  MET93       0.2261
    150  O         17.3740   17.4750   65.2690 O.2    93  MET93      -0.2867
    151  CB        18.0470   20.5130   65.2600 C.3    93  MET93       0.0387
    152  CG        18.0430   20.7100   63.7520 C.3    93  MET93       0.0595
    153  SD        19.3680   21.8160   63.2180 S.3    93  MET93      -0.1393
    154  CE        20.7670   20.6760   63.1300 C.3    93  MET93       0.0692
    155  N         23.9360   20.0810   55.3670 N.3   102  ILE102     -0.1231
    156  CA        23.7980   21.1450   56.3490 C.3   102  ILE102      0.1692
    157  C         25.1180   21.5320   56.9680 C.2   102  ILE102      0.2592
    158  O         25.3130   22.6930   57.3210 O.2   102  ILE102     -0.2718
    159  CB        22.7120   20.9210   57.3910 C.3   102  ILE102      0.0266
    160  CG1       23.1590   19.9160   58.4580 C.3   102  ILE102      0.0019
    161  CG2       21.4010   20.5190   56.6960 C.3   102  ILE102      0.0020
    162  CD1       22.3870   19.9970   59.7850 C.3   102  ILE102      0.0001
    163  N         26.0430   20.5660   57.0510 N.am  103  PHE103     -0.1976
    164  CA        27.3230   20.8780   57.6440 C.3   103  PHE103      0.1639
    165  C         28.1360   21.8670   56.8500 C.2   103  PHE103      0.2290
    166  O         29.0140   22.5460   57.3930 O.2   103  PHE103     -0.2864
    167  CB        28.1260   19.6270   57.9480 C.3   103  PHE103      0.0560
    168  CG        27.3190   18.6650   58.7790 C.ar  103  PHE103     -0.0200
    169  CD1       27.1460   17.3570   58.3380 C.ar  103  PHE103     -0.0042
    170  CD2       26.7500   19.0750   59.9860 C.ar  103  PHE103     -0.0042
    171  CE1       26.4360   16.4390   59.1090 C.ar  103  PHE103     -0.0003
    172  CE2       26.0090   18.1770   60.7590 C.ar  103  PHE103     -0.0003
    173  CZ        25.8650   16.8610   60.3090 C.ar  103  PHE103     -0.0000
    174  N         27.1370   24.6210   55.8200 N.3   105  LEU105     -0.1231
    175  CA        26.8210   25.9770   56.2070 C.3   105  LEU105      0.1693
    176  C         27.4940   26.4770   57.4740 C.2   105  LEU105      0.2591
    177  O         27.4880   27.6870   57.7380 O.2   105  LEU105     -0.2718
    178  CB        25.3060   26.0540   56.4740 C.3   105  LEU105      0.0284
    179  CG        24.4250   25.6490   55.2940 C.3   105  LEU105      0.0019
    180  CD1       22.9710   25.6870   55.7480 C.3   105  LEU105      0.0001
    181  CD2       24.6030   26.6220   54.1450 C.3   105  LEU105      0.0001
    182  N         28.0530   25.5580   58.2490 N.am  106  GLU106     -0.1979
    183  CA        28.6380   25.9660   59.5370 C.3   106  GLU106      0.1602
    184  C         29.7270   27.0540   59.4990 C.2   106  GLU106      0.2287
    185  O         29.7280   27.9730   60.2970 O.2   106  GLU106     -0.2864
    186  CB        29.1660   24.8130   60.4260 C.3   106  GLU106      0.0415
    187  CG        28.0970   23.8030   60.8580 C.3   106  GLU106      0.1163
    188  CD        28.6000   22.8340   61.9060 C.2   106  GLU106      0.3649
    189  OE1       28.5840   21.6300   61.7360 O.co2 106  GLU106     -0.2457
    190  OE2       29.0330   23.4140   63.0110 O.co2 106  GLU106     -0.2457
    191  N         29.9500   29.4700   57.7880 N.3   108  PHE108     -0.1227
    192  CA        29.4350   30.7540   57.3440 C.3   108  PHE108      0.1736
    193  C         28.6510   31.4880   58.3950 C.2   108  PHE108      0.2595
    194  O         28.3420   32.6880   58.2430 O.2   108  PHE108     -0.2718
    195  CB        28.6270   30.6940   56.0260 C.3   108  PHE108      0.0547
    196  CG        29.4600   30.1810   54.9050 C.ar  108  PHE108     -0.0202
    197  CD1       29.4590   28.8160   54.6090 C.ar  108  PHE108     -0.0042
    198  CD2       30.2930   31.0390   54.1800 C.ar  108  PHE108     -0.0042
    199  CE1       30.2470   28.2760   53.5890 C.ar  108  PHE108     -0.0003
    200  CE2       31.0830   30.5120   53.1520 C.ar  108  PHE108     -0.0003
    201  CZ        31.0700   29.1410   52.8640 C.ar  108  PHE108     -0.0000
    202  N         28.3190   30.7710   59.4650 N.am  109  ILE109     -0.1980
    203  CA        27.5900   31.3880   60.5630 C.3   109  ILE109      0.1595
    204  C         28.2520   32.6790   61.0970 C.2   109  ILE109      0.2287
    205  O         27.5730   33.6980   61.3460 O.2   109  ILE109     -0.2864
    206  CB        27.2870   30.3840   61.6950 C.3   109  ILE109      0.0276
    207  CG1       26.3440   29.2880   61.1600 C.3   109  ILE109      0.0022
    208  CG2       26.6810   31.0970   62.8840 C.3   109  ILE109      0.0022
    209  CD1       26.2080   28.0980   62.1140 C.3   109  ILE109      0.0001
    210  N         27.5600   36.2470   59.6190 N.3   112  LEU112     -0.1245
    211  CA        26.3110   36.9880   59.7900 C.3   112  LEU112      0.1561
    212  C         26.5510   38.2150   60.6580 C.2   112  LEU112      0.2260
    213  O         27.2500   38.1860   61.6410 O.2   112  LEU112     -0.2867
    214  CB        25.1880   36.1040   60.3520 C.3   112  LEU112      0.0270
    215  CG        24.8330   34.9340   59.4400 C.3   112  LEU112      0.0019
    216  CD1       23.6380   34.2000   60.0430 C.3   112  LEU112      0.0001
    217  CD2       24.5440   35.3720   57.9910 C.3   112  LEU112      0.0001
@<TRIPOS>BOND
     1    44    45    1
     2    42    41   ar
     3    57    56    1
     4    57    58    1
     5    45    48    1
     6    45    46    1
     7    56    53    1
     8    52    46   am
     9    52    53    1
    10    38    39    2
    11    38    37    1
    12    58    59    1
    13    61    60    1
    14    41    43   ar
    15    41    40    1
    16    48    49    1
    17    46    47    2
    18    50    49    2
    19    53    54    1
    20    37    40    1
    21    37    36    1
    22    49    51   am
    23    55    54    2
    24    59    60    2
    25    60    62    1
    26   101   100    2
    27    54    63   am
    28    31    30    2
    29   100    99    1
    30    34    32    1
    31    36    30   am
    32    30    29    1
    33    63    64    1
    34    99    98    1
    35    99   102    1
    36    32    29    1
    37    32    33    1
    38    29    28    1
    39    64    65    1
    40    64    67    1
    41    74    75    2
    42    74    73    1
    43    65    66    2
    44    65    72   am
    45    72    73    1
    46    35    33    1
    47    23    22    2
    48   102   103    1
    49    73    76    1
    50    71    69   am
    51    68    67    1
    52    68    69    1
    53    22    21    1
    54    69    70    2
    55   105   103    1
    56   103   104    1
    57    24    21    1
    58    24    25    1
    59    92    93    2
    60    92    91    1
    61    76    77    1
    62    76    78    1
    63    26    25    1
    64    21    20    1
    65    25    27    1
    66    91    90    1
    67    91    94    1
    68    12    11    2
    69    20    11   am
    70    18    17    1
    71    95    94    1
    72    95    96    1
    73    11    10    1
    74   201   200   ar
    75   201   199   ar
    76    19    17    1
    77    17    16    2
    78   200   198   ar
    79    96    97    1
    80   199   197   ar
    81    10     9    1
    82    10    13    1
    83     4     3    2
    84   181   179    1
    85    16    15    1
    86   198   196   ar
    87    14    15    1
    88    14    13    1
    89   197   196   ar
    90     3     2    1
    91   196   195    1
    92     7     5    1
    93   179   180    1
    94   179   178    1
    95   155   156    1
    96   174   175    1
    97    87    85   ar
    98    87    89   ar
    99   195   192    1
   100     2     5    1
   101     2     1    1
   102    79    80    1
   103     5     6    1
   104   175   178    1
   105   175   176    1
   106   156   157    1
   107   156   159    1
   108    85    84   ar
   109   161   159    1
   110   165   166    2
   111   165   164    1
   112    89    88   ar
   113   157   163   am
   114   157   158    2
   115   163   164    1
   116   112   111    1
   117   192   191    1
   118   192   193    1
   119   159   160    1
   120   176   177    2
   121   176   182   am
   122     6     8    1
   123    80    81    1
   124    80    83    1
   125    82    81    2
   126   164   167    1
   127    84    83    1
   128    84    86   ar
   129   106   107    1
   130   167   168    1
   131   217   215    1
   132    88    86   ar
   133   194   193    2
   134   182   183    1
   135   169   168   ar
   136   169   171   ar
   137   193   202   am
   138   160   162    1
   139   111   113    1
   140   111   110    1
   141   168   170   ar
   142   107   110    1
   143   107   108    1
   144   171   173   ar
   145   215   216    1
   146   215   214    1
   147   202   203    1
   148   184   183    1
   149   184   185    2
   150   183   186    1
   151   109   108    2
   152   210   211    1
   153   211   214    1
   154   211   212    1
   155   170   172   ar
   156   173   172   ar
   157   186   187    1
   158   203   204    1
   159   203   206    1
   160   212   213    2
   161   187   188    1
   162   204   205    2
   163   207   206    1
   164   207   209    1
   165   129   128    1
   166   206   208    1
   167   189   188   ar
   168   188   190   ar
   169   128   127    1
   170   121   120    1
   171   127   126    1
   172   154   153    1
   173   153   152    1
   174   146   143    1
   175   114   115    1
   176   152   151    1
   177   141   140    2
   178   139   140    1
   179   139   138    1
   180   120   119    1
   181   136   134    1
   182   126   123    1
   183   119   118    1
   184   138   132   am
   185   117   116    2
   186   149   150    2
   187   149   148    1
   188   133   132    2
   189   115   118    1
   190   115   116    1
   191   125   124    2
   192   143   144    1
   193   143   142    1
   194   151   148    1
   195   123   124    1
   196   123   122    1
   197   132   131    1
   198   137   135    1
   199   134   135    1
   200   134   131    1
   201   144   145    2
   202   148   147    1
   203   131   130    1
