@<TRIPOS>MOLECULE
tmp/1pziD00.pdb
 116 114 0 0 0
SMALL
GASTEIGER

@<TRIPOS>ATOM
      1  N         10.3920   -6.0000   42.9900 N.3    11  GLU11      -0.1231
      2  CA        10.1360   -4.6450   43.4620 C.3    11  GLU11       0.1699
      3  C          9.2540   -3.8780   42.4750 C.2    11  GLU11       0.2592
      4  O          8.8030   -2.7710   42.7750 O.2    11  GLU11      -0.2718
      5  CB        11.4530   -3.8800   43.6930 C.3    11  GLU11       0.0402
      6  CG        12.2990   -4.4360   44.8320 C.3    11  GLU11       0.1161
      7  CD        13.5400   -3.6040   45.1450 C.2    11  GLU11       0.3649
      8  OE1       14.1140   -3.8090   46.2290 O.co2  11  GLU11      -0.2457
      9  OE2       13.9470   -2.7490   44.3340 O.co2  11  GLU11      -0.2457
     10  N          9.0120   -4.4580   41.3030 N.am   12  TYR12      -0.1962
     11  CA         8.3400   -3.7340   40.2320 C.3    12  TYR12       0.1771
     12  C          7.0810   -4.4310   39.7590 C.2    12  TYR12       0.2619
     13  O          6.9780   -5.6600   39.7840 O.2    12  TYR12      -0.2715
     14  CB         9.2920   -3.5000   39.0460 C.3    12  TYR12       0.0574
     15  CG        10.4820   -2.6260   39.3960 C.ar   12  TYR12      -0.0198
     16  CD1       11.6530   -3.1830   39.8820 C.ar   12  TYR12      -0.0009
     17  CD2       10.4240   -1.2390   39.2540 C.ar   12  TYR12      -0.0009
     18  CE1       12.7400   -2.3910   40.2250 C.ar   12  TYR12       0.0417
     19  CE2       11.5000   -0.4420   39.5800 C.ar   12  TYR12       0.0417
     20  CZ        12.6650   -1.0270   40.0680 C.ar   12  TYR12       0.1957
     21  OH        13.7670   -0.2540   40.4070 O.3    12  TYR12      -0.2866
     22  N          6.1200   -3.6150   39.3410 N.am   13  ARG13      -0.1963
     23  CA         4.8930   -4.1000   38.7430 C.3    13  ARG13       0.1729
     24  C          5.1310   -4.4280   37.2830 C.2    13  ARG13       0.2616
     25  O          6.0380   -3.8860   36.6690 O.2    13  ARG13      -0.2715
     26  CB         3.8120   -3.0270   38.8380 C.3    13  ARG13       0.0348
     27  CG         3.1390   -2.9440   40.1860 C.3    13  ARG13       0.0492
     28  CD         2.2270   -1.7300   40.3400 C.3    13  ARG13       0.2205
     29  NE         1.3390   -1.8630   41.4990 N.pl3  13  ARG13      -0.0865
     30  CZ         0.9280   -0.8620   42.2700 C.cat  13  ARG13       0.5346
     31  NH1        1.3120    0.3870   42.0370 N.pl3  13  ARG13       0.1354
     32  NH2        0.1250   -1.1150   43.2900 N.pl3  13  ARG13       0.1354
     33  N          4.2880   -5.2950   36.7310 N.am   14  ASN14      -0.1972
     34  CA         4.3280   -5.6630   35.3150 C.3    14  ASN14       0.1688
     35  C          5.6430   -6.3390   34.9040 C.2    14  ASN14       0.2292
     36  O          6.1400   -6.1190   33.7950 O.2    14  ASN14      -0.2864
     37  CB         4.0680   -4.4520   34.4150 C.3    14  ASN14       0.1181
     38  CG         2.6820   -3.8570   34.6030 C.2    14  ASN14       0.2629
     39  OD1        2.5410   -2.6860   34.9440 O.2    14  ASN14      -0.2716
     40  ND2        1.6520   -4.6580   34.3560 N.am   14  ASN14      -0.0877
     41  N         13.7410   -0.8000   25.1730 N.3    51  GLU51      -0.1245
     42  CA        12.8590    0.2240   24.6360 C.3    51  GLU51       0.1567
     43  C         13.5810    1.5080   24.2350 C.2    51  GLU51       0.2260
     44  O         14.6310    1.8470   24.7840 O.2    51  GLU51      -0.2867
     45  CB        11.7850    0.5730   25.6560 C.3    51  GLU51       0.0388
     46  CG        10.7620   -0.5190   25.8850 C.3    51  GLU51       0.1160
     47  CD         9.7950   -0.1560   26.9890 C.2    51  GLU51       0.3649
     48  OE1        8.8330    0.5610   26.6690 O.co2  51  GLU51      -0.2457
     49  OE2       10.0010   -0.5740   28.1630 O.co2  51  GLU51      -0.2457
     50  N          8.3270    7.3670   30.0250 N.3    56  GLN56      -0.1231
     51  CA         8.2820    6.4140   31.1150 C.3    56  GLN56       0.1698
     52  C          9.6170    6.3260   31.8850 C.2    56  GLN56       0.2592
     53  O          9.6500    5.8910   33.0360 O.2    56  GLN56      -0.2718
     54  CB         7.8590    5.0360   30.5790 C.3    56  GLN56       0.0381
     55  CG         8.8660    4.3140   29.7180 C.3    56  GLN56       0.0905
     56  CD         8.7110    4.5910   28.2330 C.2    56  GLN56       0.2608
     57  OE1        8.5490    5.7390   27.8250 O.2    56  GLN56      -0.2717
     58  NE2        8.8050    3.5390   27.4160 N.am   56  GLN56      -0.0878
     59  N         10.7130    6.7330   31.2550 N.am   57  HIS57      -0.1962
     60  CA        12.0320    6.6500   31.8910 C.3    57  HIS57       0.1787
     61  C         12.3900    7.8900   32.6970 C.2    57  HIS57       0.2620
     62  O         12.1410    9.0190   32.2650 O.2    57  HIS57      -0.2715
     63  CB        13.1090    6.3940   30.8350 C.3    57  HIS57       0.0785
     64  CG        12.8930    5.1310   30.0690 C.ar   57  HIS57       0.0821
     65  ND1       12.5870    5.1140   28.7250 N.ar   57  HIS57      -0.2267
     66  CD2       12.9320    3.8360   30.4620 C.ar   57  HIS57       0.1154
     67  CE1       12.4360    3.8620   28.3270 C.ar   57  HIS57       0.1986
     68  NE2       12.6520    3.0680   29.3590 N.ar   57  HIS57      -0.2212
     69  N         12.9690    7.6760   33.8730 N.am   58  ILE58      -0.1977
     70  CA        13.5460    8.7830   34.6280 C.3    58  ILE58       0.1596
     71  C         14.9940    9.0180   34.1840 C.2    58  ILE58       0.2287
     72  O         15.6060    8.1480   33.5510 O.2    58  ILE58      -0.2864
     73  CB        13.4470    8.5500   36.1550 C.3    58  ILE58       0.0276
     74  CG1       14.1130    7.2340   36.5660 C.3    58  ILE58       0.0022
     75  CG2       11.9750    8.5980   36.5970 C.3    58  ILE58       0.0022
     76  CD1       14.2730    7.0770   38.0890 C.3    58  ILE58       0.0001
     77  N         17.8320    6.5920   34.3270 N.3    61  GLN61      -0.1245
     78  CA        17.7210    5.4180   33.4570 C.3    61  GLN61       0.1566
     79  C         18.3380    5.6060   32.0760 C.2    61  GLN61       0.2260
     80  O         18.5640    4.6280   31.3660 O.2    61  GLN61      -0.2867
     81  CB        16.2660    4.9990   33.3080 C.3    61  GLN61       0.0367
     82  CG        15.7230    4.2030   34.4900 C.3    61  GLN61       0.0905
     83  CD        14.2880    3.7950   34.2670 C.2    61  GLN61       0.2608
     84  OE1       13.3980    4.6490   34.2350 O.2    61  GLN61      -0.2717
     85  NE2       14.0500    2.4910   34.1150 N.am   61  GLN61      -0.0878
     86  N          9.6500   -6.2980   31.7030 N.3    88  TRP88      -0.1241
     87  CA         8.3080   -5.7440   31.7690 C.3    88  TRP88       0.1605
     88  C          7.4740   -6.4050   30.6900 C.2    88  TRP88       0.2264
     89  O          7.8140   -6.3420   29.5090 O.2    88  TRP88      -0.2867
     90  CB         8.3310   -4.2290   31.5540 C.3    88  TRP88       0.0550
     91  CG         8.8710   -3.4810   32.6990 C.ar   88  TRP88       0.0003
     92  CD1        8.2700   -3.2870   33.8980 C.ar   88  TRP88       0.0946
     93  CD2       10.1310   -2.7970   32.7670 C.ar   88  TRP88       0.0152
     94  NE1        9.0720   -2.5270   34.7170 N.ar   88  TRP88      -0.2442
     95  CE2       10.2250   -2.2170   34.0500 C.ar   88  TRP88       0.0810
     96  CE3       11.1970   -2.6270   31.8770 C.ar   88  TRP88       0.0012
     97  CZ2       11.3290   -1.4710   34.4610 C.ar   88  TRP88       0.0191
     98  CZ3       12.3010   -1.8800   32.2860 C.ar   88  TRP88       0.0001
     99  CH2       12.3520   -1.3080   33.5630 C.ar   88  TRP88       0.0015
    100  N          4.2970   -5.6680   30.0200 N.3    90  ASN90      -0.1225
    101  CA         3.2410   -4.7900   29.5120 C.3    90  ASN90       0.1785
    102  C          3.6940   -4.0890   28.2250 C.2    90  ASN90       0.2597
    103  O          3.1700   -3.0310   27.8400 O.2    90  ASN90      -0.2718
    104  CB         2.8060   -3.7610   30.5710 C.3    90  ASN90       0.1169
    105  CG         3.9000   -2.7480   30.9090 C.2    90  ASN90       0.2627
    106  OD1        5.1000   -3.0420   30.8020 O.2    90  ASN90      -0.2716
    107  ND2        3.4880   -1.5490   31.3300 N.am   90  ASN90      -0.0877
    108  N          4.6700   -4.7010   27.5650 N.am   91  LYS91      -0.1980
    109  CA         5.1860   -4.2170   26.2910 C.3    91  LYS91       0.1596
    110  C          5.4010   -5.4200   25.3510 C.2    91  LYS91       0.2287
    111  O          5.5680   -6.5480   25.8030 O.2    91  LYS91      -0.2864
    112  CB         6.4900   -3.4440   26.5300 C.3    91  LYS91       0.0298
    113  CG         6.3840   -1.9010   26.4350 C.3    91  LYS91       0.0038
    114  CD         5.3320   -1.2890   27.3190 C.3    91  LYS91       0.0206
    115  CE         5.4280    0.2350   27.4090 C.3    91  LYS91       0.1093
    116  NZ         6.5050    0.6950   28.3230 N.3    91  LYS91      -0.1314
@<TRIPOS>BOND
     1    43    42    1
     2    43    44    2
     3    42    41    1
     4    42    45    1
     5   110   111    2
     6   110   109    1
     7    45    46    1
     8    46    47    1
     9   109   112    1
    10   109   108    1
    11   113   112    1
    12   113   114    1
    13    48    47   ar
    14    47    49   ar
    15   114   115    1
    16   115   116    1
    17    58    56   am
    18   108   102   am
    19    57    56    2
    20   103   102    2
    21   102   101    1
    22    56    55    1
    23    67    65   ar
    24    67    68   ar
    25    65    64   ar
    26    68    66   ar
    27    89    88    2
    28   101   100    1
    29   101   104    1
    30    55    54    1
    31    50    51    1
    32    64    66   ar
    33    64    63    1
    34   104   105    1
    35    54    51    1
    36    88    87    1
    37   106   105    2
    38    63    60    1
    39   105   107   am
    40    51    52    1
    41    59    52   am
    42    59    60    1
    43    80    79    2
    44    90    87    1
    45    90    91    1
    46    86    87    1
    47    96    98   ar
    48    96    93   ar
    49    52    53    2
    50    60    61    1
    51    79    78    1
    52    62    61    2
    53    98    99   ar
    54    61    69   am
    55    91    93   ar
    56    91    92   ar
    57    93    95   ar
    58    81    78    1
    59    81    82    1
    60    78    77    1
    61    72    71    2
    62    99    97   ar
    63    36    35    2
    64    69    70    1
    65    92    94   ar
    66    95    97   ar
    67    95    94   ar
    68    85    83   am
    69    71    70    1
    70    84    83    2
    71    83    82    1
    72    40    38   am
    73    37    38    1
    74    37    34    1
    75    38    39    2
    76    70    73    1
    77    35    34    1
    78    34    33    1
    79    73    74    1
    80    73    75    1
    81    74    76    1
    82    25    24    2
    83    33    24   am
    84    24    23    1
    85    23    26    1
    86    23    22    1
    87    26    27    1
    88    14    15    1
    89    14    11    1
    90    17    15   ar
    91    17    19   ar
    92    22    12   am
    93    15    16   ar
    94    19    20   ar
    95    12    13    2
    96    12    11    1
    97    16    18   ar
    98    20    18   ar
    99    20    21    1
   100    27    28    1
   101    11    10    1
   102    28    29    1
   103    10     3   am
   104    29    30    2
   105    31    30    1
   106    30    32    1
   107     3     4    2
   108     3     2    1
   109     1     2    1
   110     2     5    1
   111     5     6    1
   112     9     7   ar
   113     6     7    1
   114     7     8   ar
