@<TRIPOS>MOLECULE
tmp/1pziE00.pdb
 107 105 0 0 0
SMALL
GASTEIGER

@<TRIPOS>ATOM
      1  N         39.6410    5.1920   54.2120 N.3    12  TYR12      -0.1227
      2  CA        38.2000    5.3700   54.3820 C.3    12  TYR12       0.1736
      3  C         37.5710    4.6420   55.5860 C.2    12  TYR12       0.2595
      4  O         37.9720    3.5370   55.9720 O.2    12  TYR12      -0.2718
      5  CB        37.4720    4.9410   53.1010 C.3    12  TYR12       0.0548
      6  CG        37.9050    5.7430   51.9070 C.ar   12  TYR12      -0.0200
      7  CD1       38.9410    5.3110   51.0890 C.ar   12  TYR12      -0.0009
      8  CD2       37.3150    6.9610   51.6230 C.ar   12  TYR12      -0.0009
      9  CE1       39.3630    6.0670   50.0040 C.ar   12  TYR12       0.0417
     10  CE2       37.7330    7.7240   50.5460 C.ar   12  TYR12       0.0417
     11  CZ        38.7490    7.2710   49.7410 C.ar   12  TYR12       0.1957
     12  OH        39.1330    8.0350   48.6660 O.3    12  TYR12      -0.2866
     13  N         36.5560    5.2990   56.1410 N.am   13  ARG13      -0.1966
     14  CA        35.6390    4.7220   57.1170 C.3    13  ARG13       0.1729
     15  C         34.7910    3.6060   56.5170 C.2    13  ARG13       0.2616
     16  O         34.4200    3.6450   55.3330 O.2    13  ARG13      -0.2715
     17  CB        34.6820    5.8130   57.6160 C.3    13  ARG13       0.0348
     18  CG        34.6400    6.0060   59.1110 C.3    13  ARG13       0.0492
     19  CD        33.6240    7.0660   59.5610 C.3    13  ARG13       0.2205
     20  NE        32.9970    6.7220   60.8380 N.pl3  13  ARG13      -0.0865
     21  CZ        33.6090    6.7850   62.0250 C.cat  13  ARG13       0.5346
     22  NH1       34.8760    7.1810   62.1160 N.pl3  13  ARG13       0.1354
     23  NH2       32.9510    6.4560   63.1340 N.pl3  13  ARG13       0.1354
     24  N         34.4540    2.6330   57.3540 N.am   14  ASN14      -0.1972
     25  CA        33.5090    1.5940   56.9840 C.3    14  ASN14       0.1688
     26  C         33.9330    0.8560   55.7240 C.2    14  ASN14       0.2292
     27  O         33.1020    0.5800   54.8610 O.2    14  ASN14      -0.2864
     28  CB        32.1140    2.1900   56.7540 C.3    14  ASN14       0.1181
     29  CG        31.6520    3.0640   57.8980 C.2    14  ASN14       0.2629
     30  OD1       31.4890    4.2920   57.7440 O.2    14  ASN14      -0.2716
     31  ND2       31.4230    2.4460   59.0560 N.am   14  ASN14      -0.0877
     32  N         26.8120    0.6520   43.8380 N.3    51  GLU51      -0.1245
     33  CA        25.5830    1.3430   44.2120 C.3    51  GLU51       0.1567
     34  C         25.0230    2.2170   43.0950 C.2    51  GLU51       0.2260
     35  O         25.7420    2.6450   42.1980 O.2    51  GLU51      -0.2867
     36  CB        25.8230    2.2090   45.4420 C.3    51  GLU51       0.0388
     37  CG        25.9010    1.4400   46.7450 C.3    51  GLU51       0.1160
     38  CD        26.2260    2.3420   47.9230 C.2    51  GLU51       0.3649
     39  OE1       25.2910    2.8980   48.5400 O.co2  51  GLU51      -0.2457
     40  OE2       27.4250    2.4950   48.2220 O.co2  51  GLU51      -0.2457
     41  N         25.0700   10.3990   48.3930 N.3    56  GLN56      -0.1231
     42  CA        26.2870   10.0460   49.1360 C.3    56  GLN56       0.1698
     43  C         27.5320   10.2020   48.2610 C.2    56  GLN56       0.2592
     44  O         28.6580   10.2490   48.7590 O.2    56  GLN56      -0.2718
     45  CB        26.1960    8.6260   49.6990 C.3    56  GLN56       0.0381
     46  CG        26.3590    7.5150   48.6670 C.3    56  GLN56       0.0905
     47  CD        25.0500    7.0610   48.0630 C.2    56  GLN56       0.2608
     48  OE1       24.1580    7.8650   47.8460 O.2    56  GLN56      -0.2717
     49  NE2       24.9340    5.7670   47.7900 N.am   56  GLN56      -0.0878
     50  N         27.3250   10.2960   46.9540 N.am   57  HIS57      -0.1962
     51  CA        28.4320   10.4300   46.0090 C.3    57  HIS57       0.1787
     52  C         28.7530   11.8910   45.6980 C.2    57  HIS57       0.2620
     53  O         27.8540   12.7080   45.5660 O.2    57  HIS57      -0.2715
     54  CB        28.0940    9.6850   44.7170 C.3    57  HIS57       0.0785
     55  CG        27.9000    8.2100   44.9120 C.ar   57  HIS57       0.0821
     56  ND1       26.6980    7.5740   44.6810 N.ar   57  HIS57      -0.2267
     57  CD2       28.7620    7.2510   45.3230 C.ar   57  HIS57       0.1154
     58  CE1       26.8340    6.2820   44.9300 C.ar   57  HIS57       0.1986
     59  NE2       28.0740    6.0600   45.3270 N.ar   57  HIS57      -0.2212
     60  N         30.0400   12.2070   45.6150 N.am   58  ILE58      -0.1977
     61  CA        30.4880   13.4940   45.0940 C.3    58  ILE58       0.1596
     62  C         30.5680   13.3980   43.5840 C.2    58  ILE58       0.2287
     63  O         30.5990   12.2920   43.0080 O.2    58  ILE58      -0.2864
     64  CB        31.8510   13.9150   45.7140 C.3    58  ILE58       0.0276
     65  CG1       32.9200   12.8300   45.5020 C.3    58  ILE58       0.0022
     66  CG2       31.6870   14.1970   47.2030 C.3    58  ILE58       0.0022
     67  CD1       34.3170   13.2540   45.8890 C.3    58  ILE58       0.0001
     68  N         32.8320   11.1860   41.4460 N.3    61  GLN61      -0.1245
     69  CA        32.5680    9.7470   41.5360 C.3    61  GLN61       0.1566
     70  C         31.6120    9.2430   40.4550 C.2    61  GLN61       0.2260
     71  O         31.5820    8.0400   40.1580 O.2    61  GLN61      -0.2867
     72  CB        31.9930    9.3970   42.8990 C.3    61  GLN61       0.0367
     73  CG        33.0250    9.3390   44.0050 C.3    61  GLN61       0.0905
     74  CD        32.4320    8.8820   45.3250 C.2    61  GLN61       0.2608
     75  OE1       32.6770    7.7680   45.7660 O.2    61  GLN61      -0.2717
     76  NE2       31.6520    9.7380   45.9500 N.am   61  GLN61      -0.0878
     77  N         32.7660   -0.8490   50.9260 N.3    88  TRP88      -0.1241
     78  CA        32.1270   -0.2760   52.1040 C.3    88  TRP88       0.1605
     79  C         31.2360   -1.3610   52.7170 C.2    88  TRP88       0.2264
     80  O         30.4070   -1.9460   52.0280 O.2    88  TRP88      -0.2867
     81  CB        31.2970    0.9640   51.7480 C.3    88  TRP88       0.0550
     82  CG        32.1230    2.1570   51.3530 C.ar   88  TRP88       0.0003
     83  CD1       32.8160    2.9810   52.1900 C.ar   88  TRP88       0.0946
     84  CD2       32.3540    2.6500   50.0290 C.ar   88  TRP88       0.0152
     85  NE1       33.4630    3.9560   51.4700 N.ar   88  TRP88      -0.2442
     86  CE2       33.2000    3.7740   50.1390 C.ar   88  TRP88       0.0810
     87  CE3       31.9470    2.2460   48.7510 C.ar   88  TRP88       0.0012
     88  CZ2       33.6350    4.5070   49.0270 C.ar   88  TRP88       0.0191
     89  CZ3       32.3700    2.9780   47.6480 C.ar   88  TRP88       0.0001
     90  CH2       33.2010    4.1040   47.7970 C.ar   88  TRP88       0.0015
     91  N         29.0700   -0.9390   55.1730 N.3    90  ASN90      -0.1225
     92  CA        27.8650   -0.3640   55.7790 C.3    90  ASN90       0.1785
     93  C         26.6950   -0.3930   54.7940 C.2    90  ASN90       0.2597
     94  O         25.7690    0.4120   54.8800 O.2    90  ASN90      -0.2718
     95  CB        28.1350    1.0640   56.2890 C.3    90  ASN90       0.1169
     96  CG        28.4740    2.0470   55.1670 C.2    90  ASN90       0.2627
     97  OD1       28.6900    1.6540   54.0170 O.2    90  ASN90      -0.2716
     98  ND2       28.5320    3.3360   55.5080 N.am   90  ASN90      -0.0877
     99  N         26.7500   -1.3170   53.8370 N.am   91  LYS91      -0.1980
    100  CA        25.6730   -1.4860   52.8630 C.3    91  LYS91       0.1596
    101  C         25.4130   -2.9670   52.6220 C.2    91  LYS91       0.2287
    102  O         26.2960   -3.8050   52.8540 O.2    91  LYS91      -0.2864
    103  CB        26.0340   -0.8010   51.5480 C.3    91  LYS91       0.0298
    104  CG        26.1320    0.7230   51.6290 C.3    91  LYS91       0.0038
    105  CD        24.7580    1.3600   51.5430 C.3    91  LYS91       0.0206
    106  CE        24.7440    2.7590   52.1300 C.3    91  LYS91       0.1093
    107  NZ        25.7610    3.6280   51.4890 N.3    91  LYS91      -0.1314
@<TRIPOS>BOND
     1    71    70    2
     2    70    69    1
     3    68    69    1
     4    69    72    1
     5    35    34    2
     6    72    73    1
     7    63    62    2
     8    34    33    1
     9    62    61    1
    10    32    33    1
    11    73    74    1
    12    33    36    1
    13    56    55   ar
    14    56    58   ar
    15    54    55    1
    16    54    51    1
    17    55    57   ar
    18    58    59   ar
    19    61    60    1
    20    61    64    1
    21    57    59   ar
    22    74    75    2
    23    74    76   am
    24    36    37    1
    25    65    64    1
    26    65    67    1
    27    53    52    2
    28    60    52   am
    29    52    51    1
    30    64    66    1
    31    51    50    1
    32    37    38    1
    33    50    43   am
    34    89    90   ar
    35    89    87   ar
    36    49    47   am
    37    90    88   ar
    38    48    47    2
    39    38    40   ar
    40    38    39   ar
    41    47    46    1
    42    43    44    2
    43    43    42    1
    44    41    42    1
    45    12    11    1
    46    46    45    1
    47    87    84   ar
    48    88    86   ar
    49    42    45    1
    50    11     9   ar
    51    11    10   ar
    52     9     7   ar
    53    84    86   ar
    54    84    82   ar
    55    86    85   ar
    56    10     8   ar
    57    77    78    1
    58     7     6   ar
    59    82    81    1
    60    82    83   ar
    61    85    83   ar
    62   107   106    1
    63   105   104    1
    64   105   106    1
    65   103   104    1
    66   103   100    1
    67     8     6   ar
    68    81    78    1
    69     6     5    1
    70    80    79    2
    71    78    79    1
    72   101   102    2
    73   101   100    1
    74   100    99    1
    75     5     2    1
    76    99    93   am
    77    97    96    2
    78     1     2    1
    79     2     3    1
    80    93    94    2
    81    93    92    1
    82    27    26    2
    83    96    98   am
    84    96    95    1
    85    91    92    1
    86    16    15    2
    87     3     4    2
    88     3    13   am
    89    26    25    1
    90    92    95    1
    91    13    14    1
    92    15    14    1
    93    15    24   am
    94    28    25    1
    95    28    29    1
    96    25    24    1
    97    14    17    1
    98    17    18    1
    99    30    29    2
   100    29    31   am
   101    18    19    1
   102    19    20    1
   103    20    21    2
   104    21    22    1
   105    21    23    1
