@<TRIPOS>MOLECULE
tmp/1pzjD01.pdb
 105 102 0 0 0
SMALL
GASTEIGER

@<TRIPOS>ATOM
      1  N         26.6690   37.7400   27.7850 N.3    11  GLU11      -0.1231
      2  CA        27.2210   37.3890   26.4830 C.3    11  GLU11       0.1699
      3  C         27.5140   38.6010   25.6010 C.2    11  GLU11       0.2592
      4  O         28.1070   38.4520   24.5290 O.2    11  GLU11      -0.2718
      5  CB        26.2530   36.4670   25.7350 C.3    11  GLU11       0.0402
      6  CG        26.0020   35.1250   26.4180 C.3    11  GLU11       0.1161
      7  CD        25.1690   34.1710   25.5960 C.2    11  GLU11       0.3649
      8  OE1       24.4880   34.5900   24.6590 O.co2  11  GLU11      -0.2457
      9  OE2       25.1660   32.9790   25.9250 O.co2  11  GLU11      -0.2457
     10  N         27.0670   39.7790   26.0420 N.am   12  TYR12      -0.1976
     11  CA        27.0810   40.9740   25.2190 C.3    12  TYR12       0.1639
     12  C         27.9360   42.0480   25.8500 C.2    12  TYR12       0.2290
     13  O         28.0260   42.1540   27.0800 O.2    12  TYR12      -0.2864
     14  CB        25.6500   41.5100   25.0010 C.3    12  TYR12       0.0560
     15  CG        24.8090   40.5730   24.1840 C.ar   12  TYR12      -0.0198
     16  CD1       24.1290   39.5190   24.7670 C.ar   12  TYR12      -0.0009
     17  CD2       24.7450   40.6900   22.8190 C.ar   12  TYR12      -0.0009
     18  CE1       23.4070   38.6360   24.0310 C.ar   12  TYR12       0.0417
     19  CE2       24.0140   39.8010   22.0650 C.ar   12  TYR12       0.0417
     20  CZ        23.3410   38.7720   22.6710 C.ar   12  TYR12       0.1957
     21  OH        22.6390   37.8450   21.9240 O.3    12  TYR12      -0.2866
     22  N         28.5750   46.1300   26.4780 N.3    14  ASN14      -0.1240
     23  CA        27.7740   47.3160   26.7400 C.3    14  ASN14       0.1653
     24  C         26.4500   46.9770   27.4080 C.2    14  ASN14       0.2266
     25  O         25.4870   47.6870   27.1810 O.2    14  ASN14      -0.2867
     26  CB        27.4690   48.1080   25.4390 C.3    14  ASN14       0.1155
     27  CG        28.6890   48.6530   24.7590 C.2    14  ASN14       0.2627
     28  OD1       28.9140   48.3830   23.5690 O.2    14  ASN14      -0.2716
     29  ND2       29.4500   49.4380   25.4570 N.am   14  ASN14      -0.0877
     30  N         14.4680   50.5340   21.5340 N.3    51  GLU51      -0.1245
     31  CA        15.0110   51.4010   20.4940 C.3    51  GLU51       0.1567
     32  C         14.2400   51.3070   19.1920 C.2    51  GLU51       0.2260
     33  O         13.6880   50.2790   18.8310 O.2    51  GLU51      -0.2867
     34  CB        16.4620   51.0090   20.1740 C.3    51  GLU51       0.0388
     35  CG        17.4620   51.3380   21.2500 C.3    51  GLU51       0.1160
     36  CD        18.8700   51.0440   20.7900 C.2    51  GLU51       0.3649
     37  OE1       19.2740   49.8910   20.8940 O.co2  51  GLU51      -0.2457
     38  OE2       19.5640   51.9770   20.3340 O.co2  51  GLU51      -0.2457
     39  N         22.1930   49.1350   13.4710 N.3    56  GLN56      -0.1231
     40  CA        22.9030   48.2440   14.3720 C.3    56  GLN56       0.1698
     41  C         22.1870   46.9120   14.5140 C.2    56  GLN56       0.2592
     42  O         22.8020   45.9500   14.9560 O.2    56  GLN56      -0.2718
     43  CB        23.0850   48.8810   15.7580 C.3    56  GLN56       0.0381
     44  CG        21.8110   49.0190   16.5890 C.3    56  GLN56       0.0905
     45  CD        21.0040   50.2870   16.3350 C.2    56  GLN56       0.2608
     46  OE1       21.0050   50.8110   15.2230 O.2    56  GLN56      -0.2717
     47  NE2       20.3110   50.7850   17.3660 N.am   56  GLN56      -0.0878
     48  N         20.8880   46.8710   14.1980 N.am   57  HIS57      -0.1962
     49  CA        20.0800   45.6600   14.3420 C.3    57  HIS57       0.1787
     50  C         20.2540   44.7380   13.1760 C.2    57  HIS57       0.2620
     51  O         20.4380   45.1830   12.0450 O.2    57  HIS57      -0.2715
     52  CB        18.5890   46.0020   14.5240 C.3    57  HIS57       0.0785
     53  CG        18.2980   46.7510   15.7890 C.ar   57  HIS57       0.0821
     54  ND1       17.8740   48.0580   15.7950 N.ar   57  HIS57      -0.2267
     55  CD2       18.3580   46.3660   17.0870 C.ar   57  HIS57       0.1154
     56  CE1       17.7160   48.4580   17.0470 C.ar   57  HIS57       0.1986
     57  NE2       17.9920   47.4490   17.8530 N.ar   57  HIS57      -0.2212
     58  N         20.1960   43.4480   13.4480 N.am   58  ILE58      -0.1977
     59  CA        20.1770   42.4530   12.3860 C.3    58  ILE58       0.1596
     60  C         18.7340   42.0180   12.1070 C.2    58  ILE58       0.2287
     61  O         17.8290   42.2520   12.9040 O.2    58  ILE58      -0.2864
     62  CB        21.1020   41.2690   12.7110 C.3    58  ILE58       0.0276
     63  CG1       20.6610   40.4940   13.9640 C.3    58  ILE58       0.0022
     64  CG2       22.5570   41.7540   12.8230 C.3    58  ILE58       0.0022
     65  CD1       21.5600   39.2820   14.2900 C.3    58  ILE58       0.0001
     66  N         16.3330   40.4040   14.5950 N.3    61  GLN61      -0.1245
     67  CA        15.8640   41.2000   15.7030 C.3    61  GLN61       0.1566
     68  C         14.5760   41.9400   15.4210 C.2    61  GLN61       0.2260
     69  O         13.9260   42.3710   16.3600 O.2    61  GLN61      -0.2867
     70  CB        16.9230   42.1890   16.1670 C.3    61  GLN61       0.0367
     71  CG        18.1580   41.5580   16.7440 C.3    61  GLN61       0.0905
     72  CD        19.1660   42.5740   17.1470 C.2    61  GLN61       0.2608
     73  OE1       19.9320   43.0730   16.3030 O.2    61  GLN61      -0.2717
     74  NE2       19.1800   42.9190   18.4400 N.am   61  GLN61      -0.0878
     75  N         21.3010   47.5540   27.1540 N.3    88  TRP88      -0.1241
     76  CA        22.5080   48.2140   26.6730 C.3    88  TRP88       0.1605
     77  C         22.6180   49.5850   27.3380 C.2    88  TRP88       0.2264
     78  O         21.6880   50.4080   27.2920 O.2    88  TRP88      -0.2867
     79  CB        22.4640   48.3560   25.1660 C.3    88  TRP88       0.0550
     80  CG        22.6200   47.0650   24.4520 C.ar   88  TRP88       0.0003
     81  CD1       23.7760   46.3960   24.2390 C.ar   88  TRP88       0.0946
     82  CD2       21.5890   46.3030   23.8350 C.ar   88  TRP88       0.0152
     83  NE1       23.5350   45.2520   23.5290 N.ar   88  TRP88      -0.2442
     84  CE2       22.1910   45.1720   23.2650 C.ar   88  TRP88       0.0810
     85  CE3       20.2060   46.4680   23.6890 C.ar   88  TRP88       0.0012
     86  CZ2       21.4680   44.2160   22.5630 C.ar   88  TRP88       0.0191
     87  CZ3       19.4840   45.5080   22.9690 C.ar   88  TRP88       0.0001
     88  CH2       20.1140   44.3870   22.4510 C.ar   88  TRP88       0.0015
     89  N         25.0000   51.8550   26.6590 N.3    90  ASN90      -0.1225
     90  CA        25.6080   52.8520   25.7870 C.3    90  ASN90       0.1785
     91  C         24.5690   53.6910   25.0460 C.2    90  ASN90       0.2597
     92  O         24.8950   54.3550   24.0410 O.2    90  ASN90      -0.2718
     93  CB        26.5760   52.2060   24.7690 C.3    90  ASN90       0.1169
     94  CG        25.8840   51.2870   23.8040 C.2    90  ASN90       0.2627
     95  OD1       24.8440   50.6900   24.1200 O.2    90  ASN90      -0.2716
     96  ND2       26.4930   51.1070   22.6400 N.am   90  ASN90      -0.0877
     97  N         23.3340   53.6430   25.5380 N.am   91  LYS91      -0.1980
     98  CA        22.2280   54.4490   25.0690 C.3    91  LYS91       0.1596
     99  C         21.5250   55.0690   26.2700 C.2    91  LYS91       0.2287
    100  O         21.5620   54.5200   27.3880 O.2    91  LYS91      -0.2864
    101  CB        21.2130   53.5970   24.2980 C.3    91  LYS91       0.0298
    102  CG        21.7920   52.8490   23.0570 C.3    91  LYS91       0.0038
    103  CD        22.1080   53.8490   21.9290 C.3    91  LYS91       0.0206
    104  CE        22.9630   53.2260   20.8280 C.3    91  LYS91       0.1093
    105  NZ        22.3450   51.9780   20.2350 N.3    91  LYS91      -0.1314
@<TRIPOS>BOND
     1    51    50    2
     2    60    59    1
     3    60    61    2
     4    59    62    1
     5    59    58    1
     6    62    64    1
     7    62    63    1
     8    50    58   am
     9    50    49    1
    10    39    40    1
    11    63    65    1
    12    48    49    1
    13    48    41   am
    14    49    52    1
    15    40    41    1
    16    40    43    1
    17    41    42    2
    18    52    53    1
    19    66    67    1
    20    46    45    2
    21    68    67    1
    22    68    69    2
    23    67    70    1
    24    43    44    1
    25    53    54   ar
    26    53    55   ar
    27    54    56   ar
    28    70    71    1
    29    73    72    2
    30    45    44    1
    31    45    47   am
    32    71    72    1
    33    56    57   ar
    34    55    57   ar
    35    72    74   am
    36    33    32    2
    37    32    31    1
    38    34    31    1
    39    34    35    1
    40   105   104    1
    41    38    36   ar
    42    31    30    1
    43    36    37   ar
    44    36    35    1
    45   104   103    1
    46    21    20    1
    47   103   102    1
    48    19    20   ar
    49    19    17   ar
    50    88    86   ar
    51    88    87   ar
    52    86    84   ar
    53    96    94   am
    54    20    18   ar
    55    17    15   ar
    56    87    85   ar
    57   102   101    1
    58    84    83   ar
    59    84    82   ar
    60    83    81   ar
    61    28    27    2
    62    85    82   ar
    63    94    95    2
    64    94    93    1
    65    82    80   ar
    66    18    16   ar
    67    92    91    2
    68    15    16   ar
    69    15    14    1
    70    81    80   ar
    71   101    98    1
    72    80    79    1
    73     4     3    2
    74     8     7   ar
    75    27    26    1
    76    27    29   am
    77    93    90    1
    78    14    11    1
    79    91    97   am
    80    91    90    1
    81    98    97    1
    82    98    99    1
    83    79    76    1
    84    11    12    1
    85    11    10    1
    86    26    23    1
    87     7     9   ar
    88     7     6    1
    89     3    10   am
    90     3     2    1
    91     5     6    1
    92     5     2    1
    93    90    89    1
    94    12    13    2
    95    99   100    2
    96    22    23    1
    97     2     1    1
    98    76    75    1
    99    76    77    1
   100    23    24    1
   101    25    24    2
   102    78    77    2
