@<TRIPOS>MOLECULE
tmp/1pzkE00.pdb
 115 114 0 0 0
SMALL
GASTEIGER

@<TRIPOS>ATOM
      1  N          6.2880   11.2130   17.7810 N.3    11  GLU11      -0.1231
      2  CA         6.6180   11.1980   16.3520 C.3    11  GLU11       0.1699
      3  C          8.0170   11.7200   16.0220 C.2    11  GLU11       0.2592
      4  O          8.4520   11.6180   14.8740 O.2    11  GLU11      -0.2718
      5  CB         5.5960   12.0060   15.5490 C.3    11  GLU11       0.0402
      6  CG         4.1670   11.4780   15.6220 C.3    11  GLU11       0.1161
      7  CD         3.2610   12.1900   14.6320 C.2    11  GLU11       0.3649
      8  OE1        3.3210   13.4230   14.5950 O.co2  11  GLU11      -0.2457
      9  OE2        2.5010   11.5450   13.8600 O.co2  11  GLU11      -0.2457
     10  N          8.6960   12.2740   17.0230 N.am   12  TYR12      -0.1962
     11  CA        10.0030   12.9090   16.8740 C.3    12  TYR12       0.1771
     12  C         11.0770   12.2370   17.7130 C.2    12  TYR12       0.2620
     13  O         10.7930   11.7170   18.7810 O.2    12  TYR12      -0.2715
     14  CB         9.8970   14.3940   17.2840 C.3    12  TYR12       0.0574
     15  CG         8.9070   15.1400   16.4110 C.ar   12  TYR12      -0.0198
     16  CD1        7.5360   15.1410   16.7160 C.ar   12  TYR12      -0.0009
     17  CD2        9.3500   15.8100   15.2620 C.ar   12  TYR12      -0.0009
     18  CE1        6.6270   15.7830   15.8850 C.ar   12  TYR12       0.0417
     19  CE2        8.4640   16.4740   14.4480 C.ar   12  TYR12       0.0417
     20  CZ         7.0920   16.4440   14.7590 C.ar   12  TYR12       0.1957
     21  OH         6.1980   17.0760   13.9210 O.3    12  TYR12      -0.2866
     22  N         12.3210   12.3040   17.2270 N.am   13  HIS13      -0.1959
     23  CA        13.4860   11.8890   18.0110 C.3    13  HIS13       0.1787
     24  C         13.9410   13.0060   18.9360 C.2    13  HIS13       0.2620
     25  O         13.5720   14.1840   18.7810 O.2    13  HIS13      -0.2715
     26  CB        14.6560   11.4480   17.1200 C.3    13  HIS13       0.0785
     27  CG        14.3640   10.2200   16.3150 C.ar   13  HIS13       0.0821
     28  ND1       13.7830   10.2710   15.0680 N.ar   13  HIS13      -0.2267
     29  CD2       14.5620    8.9070   16.5820 C.ar   13  HIS13       0.1154
     30  CE1       13.6270    9.0460   14.6030 C.ar   13  HIS13       0.1986
     31  NE2       14.0900    8.1970   15.5020 N.ar   13  HIS13      -0.2212
     32  N         14.7020   12.6240   19.9330 N.am   14  ASN14      -0.1972
     33  CA        15.2410   13.5340   20.9180 C.3    14  ASN14       0.1688
     34  C         14.1650   14.2730   21.7000 C.2    14  ASN14       0.2292
     35  O         14.4040   15.4120   22.0660 O.2    14  ASN14      -0.2864
     36  CB        16.1830   14.5790   20.2780 C.3    14  ASN14       0.1181
     37  CG        17.3970   13.9870   19.6460 C.2    14  ASN14       0.2629
     38  OD1       17.6900   14.2590   18.4640 O.2    14  ASN14      -0.2716
     39  ND2       18.1690   13.2380   20.4280 N.am   14  ASN14      -0.0877
     40  N         13.5490   28.0690   21.2990 N.3    51  GLU51      -0.1245
     41  CA        14.8130   28.3090   20.6060 C.3    51  GLU51       0.1567
     42  C         14.7640   29.4960   19.6710 C.2    51  GLU51       0.2260
     43  O         13.7470   29.7970   19.0590 O.2    51  GLU51      -0.2867
     44  CB        15.2190   27.1130   19.7670 C.3    51  GLU51       0.0388
     45  CG        15.6230   25.9040   20.5690 C.3    51  GLU51       0.1160
     46  CD        16.1340   24.7800   19.6880 C.2    51  GLU51       0.3649
     47  OE1       15.3170   23.9900   19.1990 O.co2  51  GLU51      -0.2457
     48  OE2       17.3400   24.7020   19.4760 O.co2  51  GLU51      -0.2457
     49  N         17.8870   24.5010   11.6810 N.3    56  GLN56      -0.1231
     50  CA        17.1870   23.2620   11.9690 C.3    56  GLN56       0.1698
     51  C         15.6840   23.3820   11.6950 C.2    56  GLN56       0.2592
     52  O         14.9970   22.3810   11.5790 O.2    56  GLN56      -0.2718
     53  CB        17.4260   22.8540   13.4450 C.3    56  GLN56       0.0381
     54  CG        16.7660   23.7270   14.5160 C.3    56  GLN56       0.0905
     55  CD        17.6320   24.8440   15.0110 C.2    56  GLN56       0.2608
     56  OE1       18.3920   25.4700   14.2230 O.2    56  GLN56      -0.2717
     57  NE2       17.5130   25.1510   16.3150 N.am   56  GLN56      -0.0878
     58  N         15.1750   24.6090   11.6740 N.am   57  HIS57      -0.1962
     59  CA        13.7750   24.8590   11.4930 C.3    57  HIS57       0.1787
     60  C         13.3570   24.9550   10.0420 C.2    57  HIS57       0.2620
     61  O         14.0300   25.5820    9.2370 O.2    57  HIS57      -0.2715
     62  CB        13.4720   26.1750   12.2030 C.3    57  HIS57       0.0785
     63  CG        13.6370   26.1200   13.6930 C.ar   57  HIS57       0.0821
     64  ND1       13.9500   27.2050   14.4340 N.ar   57  HIS57      -0.2267
     65  CD2       13.6390   25.0760   14.5550 C.ar   57  HIS57       0.1154
     66  CE1       13.9880   26.8760   15.7110 C.ar   57  HIS57       0.1986
     67  NE2       13.7160   25.6060   15.8120 N.ar   57  HIS57      -0.2212
     68  N         12.2550   24.2950    9.6980 N.am   58  ILE58      -0.1977
     69  CA        11.6560   24.4620    8.3850 C.3    58  ILE58       0.1596
     70  C         10.7440   25.6860    8.3410 C.2    58  ILE58       0.2287
     71  O         10.3160   26.2120    9.3710 O.2    58  ILE58      -0.2864
     72  CB        10.9400   23.1570    7.9120 C.3    58  ILE58       0.0276
     73  CG1        9.7440   22.7840    8.7900 C.3    58  ILE58       0.0022
     74  CG2       11.9550   22.0050    7.8290 C.3    58  ILE58       0.0022
     75  CD1        8.8990   21.6400    8.2260 C.3    58  ILE58       0.0001
     76  N          7.6480   26.3040   10.4560 N.3    61  GLN61      -0.1245
     77  CA         7.7960   26.4260   11.8880 C.3    61  GLN61       0.1566
     78  C          7.9340   27.8620   12.3150 C.2    61  GLN61       0.2260
     79  O          7.7700   28.1440   13.4930 O.2    61  GLN61      -0.2867
     80  CB         9.0040   25.6400   12.3830 C.3    61  GLN61       0.0367
     81  CG         8.8260   24.1230   12.2470 C.3    61  GLN61       0.0905
     82  CD        10.0310   23.3770   12.7830 C.2    61  GLN61       0.2608
     83  OE1       11.0060   23.1960   12.0760 O.2    61  GLN61      -0.2717
     84  NE2        9.9830   22.9940   14.0600 N.am   61  GLN61      -0.0878
     85  N         12.5060   18.9940   23.0840 N.3    88  TRP88      -0.1241
     86  CA        13.7140   18.3640   22.6140 C.3    88  TRP88       0.1605
     87  C         14.7430   18.4090   23.7350 C.2    88  TRP88       0.2264
     88  O         15.0730   19.4740   24.2540 O.2    88  TRP88      -0.2867
     89  CB        14.2390   19.0890   21.3920 C.3    88  TRP88       0.0550
     90  CG        13.4200   18.8300   20.1470 C.ar   88  TRP88       0.0003
     91  CD1       13.3920   17.6830   19.3950 C.ar   88  TRP88       0.0946
     92  CD2       12.4670   19.7170   19.5610 C.ar   88  TRP88       0.0152
     93  NE1       12.5020   17.8140   18.3580 N.ar   88  TRP88      -0.2442
     94  CE2       11.9360   19.0680   18.4240 C.ar   88  TRP88       0.0810
     95  CE3       12.0580   21.0310   19.8340 C.ar   88  TRP88       0.0012
     96  CZ2       11.0010   19.6690   17.5950 C.ar   88  TRP88       0.0191
     97  CZ3       11.1370   21.6360   18.9940 C.ar   88  TRP88       0.0001
     98  CH2       10.6100   20.9460   17.9000 C.ar   88  TRP88       0.0015
     99  N         17.9360   17.3200   23.4530 N.3    90  ASN90      -0.1225
    100  CA        19.3030   17.4970   22.9380 C.3    90  ASN90       0.1785
    101  C         19.7710   18.9410   22.9360 C.2    90  ASN90       0.2597
    102  O         20.7590   19.2730   22.3060 O.2    90  ASN90      -0.2718
    103  CB        19.4360   16.9040   21.5300 C.3    90  ASN90       0.1169
    104  CG        18.6110   17.6480   20.4910 C.2    90  ASN90       0.2627
    105  OD1       17.5560   18.1820   20.7710 O.2    90  ASN90      -0.2716
    106  ND2       19.1040   17.6460   19.2660 N.am   90  ASN90      -0.0877
    107  N         19.0490   19.7810   23.6710 N.am   91  LYS91      -0.1980
    108  CA        19.3800   21.1880   23.8650 C.3    91  LYS91       0.1596
    109  C         19.2900   21.4750   25.3420 C.2    91  LYS91       0.2287
    110  O         18.5580   20.8050   26.0680 O.2    91  LYS91      -0.2864
    111  CB        18.3560   22.0740   23.1600 C.3    91  LYS91       0.0298
    112  CG        18.3280   21.9200   21.6520 C.3    91  LYS91       0.0038
    113  CD        19.6020   22.4350   20.9530 C.3    91  LYS91       0.0206
    114  CE        19.7400   21.9940   19.4940 C.3    91  LYS91       0.1093
    115  NZ        18.5690   22.3260   18.6470 N.3    91  LYS91      -0.1314
@<TRIPOS>BOND
     1    74    72    1
     2    72    69    1
     3    72    73    1
     4    75    73    1
     5    70    69    1
     6    70    71    2
     7    69    68    1
     8    61    60    2
     9    68    60   am
    10    60    59    1
    11    76    77    1
    12    59    58    1
    13    59    62    1
    14    52    51    2
    15    58    51   am
    16    49    50    1
    17    51    50    1
    18    77    78    1
    19    77    80    1
    20    50    53    1
    21    83    82    2
    22    62    63    1
    23    81    80    1
    24    81    82    1
    25    78    79    2
    26    82    84   am
    27    53    54    1
    28    63    64   ar
    29    63    65   ar
    30     9     7   ar
    31    21    20    1
    32    56    55    2
    33    64    66   ar
    34    19    20   ar
    35    19    17   ar
    36    54    55    1
    37    65    67   ar
    38     8     7   ar
    39    30    28   ar
    40    30    31   ar
    41     7     6    1
    42    20    18   ar
    43     4     3    2
    44    55    57   am
    45    28    27   ar
    46    17    15   ar
    47    31    29   ar
    48     5     6    1
    49     5     2    1
    50    66    67   ar
    51    18    16   ar
    52     3     2    1
    53     3    10   am
    54    27    29   ar
    55    27    26    1
    56     2     1    1
    57    15    16   ar
    58    15    14    1
    59    11    10    1
    60    11    14    1
    61    11    12    1
    62    26    23    1
    63    22    12   am
    64    22    23    1
    65    96    98   ar
    66    96    94   ar
    67    12    13    2
    68    98    97   ar
    69    23    24    1
    70    93    94   ar
    71    93    91   ar
    72    94    92   ar
    73    38    37    2
    74   115   114    1
    75    25    24    2
    76    24    32   am
    77    97    95   ar
    78    43    42    2
    79    47    46   ar
    80   106   104   am
    81    91    90   ar
    82    48    46   ar
    83   114   113    1
    84    92    95   ar
    85    92    90   ar
    86    37    36    1
    87    37    39   am
    88    42    41    1
    89    46    45    1
    90    44    45    1
    91    44    41    1
    92    32    33    1
    93    90    89    1
    94    36    33    1
    95   104   105    2
    96   104   103    1
    97    41    40    1
    98    33    34    1
    99   113   112    1
   100    89    86    1
   101   103   100    1
   102   112   111    1
   103    34    35    2
   104   102   101    2
   105    86    85    1
   106    86    87    1
   107   101   100    1
   108   101   107   am
   109   100    99    1
   110   111   108    1
   111   107   108    1
   112    87    88    2
   113   108   109    1
   114   109   110    2
