@<TRIPOS>MOLECULE
tmp/1pzkC00.pdb
 115 114 0 0 0
SMALL
GASTEIGER

@<TRIPOS>ATOM
      1  N          9.8550   67.6250   19.9710 N.3    11  GLU11      -0.1231
      2  CA        10.8080   67.4610   18.8650 C.3    11  GLU11       0.1699
      3  C         10.1580   67.7100   17.5100 C.2    11  GLU11       0.2592
      4  O         10.8600   67.8220   16.5020 O.2    11  GLU11      -0.2718
      5  CB        11.4380   66.0600   18.8780 C.3    11  GLU11       0.0402
      6  CG        12.2940   65.7650   20.1090 C.3    11  GLU11       0.1161
      7  CD        12.9940   64.4160   20.0370 C.2    11  GLU11       0.3649
      8  OE1       12.4000   63.4770   19.5080 O.co2  11  GLU11      -0.2457
      9  OE2       14.1300   64.2860   20.5170 O.co2  11  GLU11      -0.2457
     10  N          8.8290   67.8230   17.4940 N.am   12  TYR12      -0.1962
     11  CA         8.0430   67.9080   16.2590 C.3    12  TYR12       0.1771
     12  C          7.3320   69.2320   16.0840 C.2    12  TYR12       0.2620
     13  O          6.8500   69.8210   17.0510 O.2    12  TYR12      -0.2715
     14  CB         7.0000   66.7720   16.2370 C.3    12  TYR12       0.0574
     15  CG         7.6620   65.4160   16.1460 C.ar   12  TYR12      -0.0198
     16  CD1        8.0820   64.7570   17.2880 C.ar   12  TYR12      -0.0009
     17  CD2        7.9390   64.8410   14.9180 C.ar   12  TYR12      -0.0009
     18  CE1        8.7470   63.5470   17.2150 C.ar   12  TYR12       0.0417
     19  CE2        8.5810   63.6190   14.8250 C.ar   12  TYR12       0.0417
     20  CZ         8.9860   62.9670   15.9730 C.ar   12  TYR12       0.1957
     21  OH         9.6350   61.7390   15.8810 O.3    12  TYR12      -0.2866
     22  N          7.2290   69.6570   14.8330 N.am   13  HIS13      -0.1959
     23  CA         6.3960   70.7990   14.5060 C.3    13  HIS13       0.1787
     24  C          4.9290   70.4370   14.5580 C.2    13  HIS13       0.2620
     25  O          4.5470   69.2880   14.2810 O.2    13  HIS13      -0.2715
     26  CB         6.7590   71.3690   13.1340 C.3    13  HIS13       0.0785
     27  CG         8.1380   71.9390   13.0820 C.ar   13  HIS13       0.0821
     28  ND1        9.2220   71.2310   12.6040 N.ar   13  HIS13      -0.2267
     29  CD2        8.6210   73.1350   13.4920 C.ar   13  HIS13       0.1154
     30  CE1       10.3100   71.9790   12.6990 C.ar   13  HIS13       0.1986
     31  NE2        9.9710   73.1410   13.2310 N.ar   13  HIS13      -0.2212
     32  N          4.1140   71.4270   14.9330 N.am   14  ASN14      -0.1972
     33  CA         2.6630   71.3180   14.8770 C.3    14  ASN14       0.1688
     34  C          2.0850   70.3070   15.8410 C.2    14  ASN14       0.2292
     35  O          1.1030   69.6590   15.5270 O.2    14  ASN14      -0.2864
     36  CB         2.1850   71.0160   13.4520 C.3    14  ASN14       0.1181
     37  CG         2.6730   72.0410   12.4570 C.2    14  ASN14       0.2629
     38  OD1        3.2580   71.7090   11.4210 O.2    14  ASN14      -0.2716
     39  ND2        2.4810   73.3000   12.7930 N.am   14  ASN14      -0.0877
     40  N         -4.8010   58.7580   12.5070 N.3    51  GLU51      -0.1245
     41  CA        -4.9690   59.0620   11.1010 C.3    51  GLU51       0.1567
     42  C         -4.8820   57.8100   10.2220 C.2    51  GLU51       0.2260
     43  O         -4.1480   56.8490   10.5070 O.2    51  GLU51      -0.2867
     44  CB        -3.8840   60.0540   10.6520 C.3    51  GLU51       0.0388
     45  CG        -4.0450   61.4830   11.1060 C.3    51  GLU51       0.1160
     46  CD        -3.0080   62.3700   10.4320 C.2    51  GLU51       0.3649
     47  OE1       -1.9300   62.5070   11.0070 O.co2  51  GLU51      -0.2457
     48  OE2       -3.2500   62.8690    9.3140 O.co2  51  GLU51      -0.2457
     49  N          2.0070   61.2880    4.0440 N.3    56  GLN56      -0.1231
     50  CA         2.7270   62.0280    5.0810 C.3    56  GLN56       0.1698
     51  C          3.5610   61.1010    5.9790 C.2    56  GLN56       0.2592
     52  O          4.5270   61.5280    6.6090 O.2    56  GLN56      -0.2718
     53  CB         1.7550   62.8590    5.9400 C.3    56  GLN56       0.0381
     54  CG         0.8400   62.0830    6.8890 C.3    56  GLN56       0.0905
     55  CD        -0.5390   61.7640    6.2980 C.2    56  GLN56       0.2608
     56  OE1       -0.6540   61.3470    5.1320 O.2    56  GLN56      -0.2717
     57  NE2       -1.5860   61.9380    7.1110 N.am   56  GLN56      -0.0878
     58  N          3.1960   59.8280    6.0210 N.am   57  HIS57      -0.1962
     59  CA         3.8320   58.8810    6.9280 C.3    57  HIS57       0.1787
     60  C          4.9950   58.1810    6.2490 C.2    57  HIS57       0.2620
     61  O          4.8920   57.8230    5.0690 O.2    57  HIS57      -0.2715
     62  CB         2.8250   57.8300    7.3380 C.3    57  HIS57       0.0785
     63  CG         1.6840   58.3670    8.1330 C.ar   57  HIS57       0.0821
     64  ND1        0.3680   58.0980    7.8200 N.ar   57  HIS57      -0.2267
     65  CD2        1.6580   59.1630    9.2330 C.ar   57  HIS57       0.1154
     66  CE1       -0.4160   58.6580    8.7310 C.ar   57  HIS57       0.1986
     67  NE2        0.3380   59.3220    9.5900 N.ar   57  HIS57      -0.2212
     68  N          6.0960   57.9840    6.9740 N.am   58  ILE58      -0.1977
     69  CA         7.2090   57.2130    6.4470 C.3    58  ILE58       0.1596
     70  C          7.0050   55.7310    6.7610 C.2    58  ILE58       0.2287
     71  O          6.1740   55.3610    7.5930 O.2    58  ILE58      -0.2864
     72  CB         8.6050   57.7530    6.9380 C.3    58  ILE58       0.0276
     73  CG1        8.7590   57.6070    8.4650 C.3    58  ILE58       0.0022
     74  CG2        8.8190   59.2030    6.4700 C.3    58  ILE58       0.0022
     75  CD1       10.1280   58.0790    9.0210 C.3    58  ILE58       0.0001
     76  N          6.6590   54.2420   10.2840 N.3    61  GLN61      -0.1245
     77  CA         5.4620   54.5770   11.0430 C.3    61  GLN61       0.1566
     78  C          4.2860   53.6410   10.8220 C.2    61  GLN61       0.2260
     79  O          3.3970   53.5940   11.6450 O.2    61  GLN61      -0.2867
     80  CB         5.0010   55.9910   10.7360 C.3    61  GLN61       0.0367
     81  CG         5.9850   57.0790   11.1160 C.3    61  GLN61       0.0905
     82  CD         5.4390   58.4550   10.7670 C.2    61  GLN61       0.2608
     83  OE1        5.6280   58.9330    9.6470 O.2    61  GLN61      -0.2717
     84  NE2        4.7250   59.0710   11.7060 N.am   61  GLN61      -0.0878
     85  N         -0.7050   65.9010   16.7780 N.3    88  TRP88      -0.1241
     86  CA        -0.6020   66.9780   15.8150 C.3    88  TRP88       0.1605
     87  C         -1.8840   67.7990   15.8520 C.2    88  TRP88       0.2264
     88  O         -3.0000   67.2690   15.6730 O.2    88  TRP88      -0.2867
     89  CB        -0.3620   66.4250   14.4330 C.3    88  TRP88       0.0550
     90  CG         0.9970   65.8770   14.2980 C.ar   88  TRP88       0.0003
     91  CD1        2.1680   66.5860   14.1220 C.ar   88  TRP88       0.0946
     92  CD2        1.3630   64.5030   14.3340 C.ar   88  TRP88       0.0152
     93  NE1        3.2290   65.7220   14.0490 N.ar   88  TRP88      -0.2442
     94  CE2        2.7710   64.4380   14.1830 C.ar   88  TRP88       0.0810
     95  CE3        0.6530   63.3060   14.5090 C.ar   88  TRP88       0.0012
     96  CZ2        3.4700   63.2390   14.1620 C.ar   88  TRP88       0.0191
     97  CZ3        1.3630   62.0980   14.4850 C.ar   88  TRP88       0.0001
     98  CH2        2.7570   62.0790   14.3180 C.ar   88  TRP88       0.0015
     99  N         -2.5180   70.3120   13.8380 N.3    90  ASN90      -0.1225
    100  CA        -2.8320   70.8230   12.5050 C.3    90  ASN90       0.1785
    101  C         -3.7880   69.8950   11.7360 C.2    90  ASN90       0.2597
    102  O         -3.8760   69.9640   10.5060 O.2    90  ASN90      -0.2718
    103  CB        -1.5410   71.0760   11.6890 C.3    90  ASN90       0.1169
    104  CG        -0.7770   69.7890   11.3450 C.2    90  ASN90       0.2627
    105  OD1       -1.0200   68.7380   11.9220 O.2    90  ASN90      -0.2716
    106  ND2        0.1730   69.8900   10.4020 N.am   90  ASN90      -0.0877
    107  N         -4.4850   69.0200   12.4770 N.am   91  LYS91      -0.1980
    108  CA        -5.5010   68.1030   11.9450 C.3    91  LYS91       0.1596
    109  C         -6.7030   68.1820   12.8620 C.2    91  LYS91       0.2287
    110  O         -6.5610   68.5400   14.0380 O.2    91  LYS91      -0.2864
    111  CB        -4.9860   66.6500   11.9330 C.3    91  LYS91       0.0298
    112  CG        -3.7910   66.3800   11.0020 C.3    91  LYS91       0.0038
    113  CD        -4.1830   66.5390    9.5230 C.3    91  LYS91       0.0206
    114  CE        -2.9680   66.5340    8.6080 C.3    91  LYS91       0.1093
    115  NZ        -2.0570   65.3580    8.8140 N.3    91  LYS91      -0.1314
@<TRIPOS>BOND
     1    49    50    1
     2    61    60    2
     3    50    53    1
     4    50    51    1
     5    56    55    2
     6    53    54    1
     7    51    58   am
     8    51    52    2
     9    58    59    1
    10    60    59    1
    11    60    68   am
    12    55    54    1
    13    55    57   am
    14    69    70    1
    15    69    72    1
    16    69    68    1
    17    74    72    1
    18    70    71    2
    19    59    62    1
    20    72    73    1
    21    62    63    1
    22    64    63   ar
    23    64    66   ar
    24    63    65   ar
    25    73    75    1
    26   114   115    1
    27   114   113    1
    28    66    67   ar
    29    65    67   ar
    30    48    46   ar
    31   113   112    1
    32    83    82    2
    33    42    43    2
    34    42    41    1
    35    76    77    1
    36   106   104   am
    37    46    47   ar
    38    46    45    1
    39   102   101    2
    40    44    41    1
    41    44    45    1
    42    80    77    1
    43    80    81    1
    44    82    81    1
    45    82    84   am
    46    78    77    1
    47    78    79    2
    48   112   111    1
    49    41    40    1
    50   104   103    1
    51   104   105    2
    52    38    37    2
    53   103   100    1
    54   101   107   am
    55   101   100    1
    56   111   108    1
    57   108   107    1
    58   108   109    1
    59    37    39   am
    60    37    36    1
    61   100    99    1
    62    28    30   ar
    63    28    27   ar
    64    30    31   ar
    65   109   110    2
    66    27    26    1
    67    27    29   ar
    68    26    23    1
    69    31    29   ar
    70    36    33    1
    71    93    91   ar
    72    93    94   ar
    73    91    90   ar
    74    96    94   ar
    75    96    98   ar
    76    94    92   ar
    77    25    24    2
    78    90    92   ar
    79    90    89    1
    80    98    97   ar
    81    92    95   ar
    82    89    86    1
    83    97    95   ar
    84    23    24    1
    85    23    22    1
    86    24    32   am
    87    19    17   ar
    88    19    20   ar
    89    22    12   am
    90    33    32    1
    91    33    34    1
    92    17    15   ar
    93    35    34    2
    94    88    87    2
    95    86    87    1
    96    86    85    1
    97    21    20    1
    98    20    18   ar
    99    12    11    1
   100    12    13    2
   101    15    14    1
   102    15    16   ar
   103    14    11    1
   104    11    10    1
   105     4     3    2
   106    18    16   ar
   107    10     3   am
   108     3     2    1
   109     2     5    1
   110     2     1    1
   111     5     6    1
   112     8     7   ar
   113     7     6    1
   114     7     9   ar
