@<TRIPOS>MOLECULE
tmp/1pzmB00.pdb
 133 128 0 0 0
SMALL
GASTEIGER

@<TRIPOS>ATOM
      1  N          1.5640   29.9820   36.7750 N.3    45  VAL45      -0.1245
      2  CA         2.8810   29.7140   37.3740 C.3    45  VAL45       0.1561
      3  C          4.0050   30.4310   36.5830 C.2    45  VAL45       0.2260
      4  O          4.3490   30.0110   35.4950 O.2    45  VAL45      -0.2867
      5  CB         3.2360   28.2090   37.4150 C.3    45  VAL45       0.0252
      6  CG1        4.5630   28.0540   38.1510 C.3    45  VAL45       0.0019
      7  CG2        2.1250   27.3820   38.1810 C.3    45  VAL45       0.0019
      8  N          7.3730   30.9500   33.1640 N.3    48  GLY48      -0.1225
      9  CA         7.2040   30.2810   31.8940 C.3    48  GLY48       0.1811
     10  C          5.7640   30.1840   31.3730 C.2    48  GLY48       0.2280
     11  O          5.5480   30.0220   30.1510 O.2    48  GLY48      -0.2866
     12  N          0.4440   25.6060   33.8890 N.3    94  GLU94      -0.1231
     13  CA         1.8860   25.4100   33.7970 C.3    94  GLU94       0.1699
     14  C          2.3880   25.3070   32.3880 C.2    94  GLU94       0.2592
     15  O          1.6910   24.7180   31.5680 O.2    94  GLU94      -0.2718
     16  CB         2.2150   24.0620   34.4140 C.3    94  GLU94       0.0402
     17  CG         2.2090   24.0570   35.8760 C.3    94  GLU94       0.1161
     18  CD         3.5750   24.4560   36.2990 C.2    94  GLU94       0.3649
     19  OE1        4.2990   25.0210   35.4060 O.co2  94  GLU94      -0.2457
     20  OE2        3.9130   24.1930   37.4730 O.co2  94  GLU94      -0.2457
     21  N          3.6220   25.7470   32.1240 N.am   95  ASP95      -0.1960
     22  CA         4.1480   25.5890   30.7880 C.3    95  ASP95       0.1840
     23  C          4.4480   24.1140   30.4390 C.2    95  ASP95       0.2622
     24  O          4.0510   23.6210   29.3490 O.2    95  ASP95      -0.2715
     25  CB         5.3740   26.4870   30.4980 C.3    95  ASP95       0.1450
     26  CG         6.4300   26.4540   31.5880 C.2    95  ASP95       0.3671
     27  OD1        6.3330   25.7140   32.6250 O.co2  95  ASP95      -0.2456
     28  OD2        7.4550   27.1520   31.4340 O.co2  95  ASP95      -0.2456
     29  N          5.1790   23.4720   31.3300 N.am   96  ILE96      -0.1963
     30  CA         5.7290   22.1330   31.1140 C.3    96  ILE96       0.1727
     31  C          5.7720   21.3710   32.4060 C.2    96  ILE96       0.2616
     32  O          6.2380   21.9240   33.4360 O.2    96  ILE96      -0.2715
     33  CB         7.1940   22.2330   30.6080 C.3    96  ILE96       0.0290
     34  CG1        7.3030   22.9520   29.2790 C.3    96  ILE96       0.0022
     35  CG2        7.8870   20.8460   30.6340 C.3    96  ILE96       0.0023
     36  CD1        8.7640   23.3800   28.9840 C.3    96  ILE96       0.0001
     37  N          5.3090   20.1270   32.3680 N.am   97  VAL97      -0.1963
     38  CA         5.3890   19.2250   33.5020 C.3    97  VAL97       0.1727
     39  C          6.2330   18.0220   33.0640 C.2    97  VAL97       0.2616
     40  O          5.9170   17.3170   32.0630 O.2    97  VAL97      -0.2715
     41  CB         4.0050   18.8260   34.0430 C.3    97  VAL97       0.0290
     42  CG1        4.1300   17.7810   35.2170 C.3    97  VAL97       0.0023
     43  CG2        3.2560   20.1440   34.5620 C.3    97  VAL97       0.0023
     44  N          7.3180   17.8080   33.8370 N.am   98  ASP98      -0.1957
     45  CA         8.3450   16.8390   33.4810 C.3    98  ASP98       0.1840
     46  C          8.4130   15.7840   34.5950 C.2    98  ASP98       0.2623
     47  O          7.6410   14.8010   34.5920 O.2    98  ASP98      -0.2715
     48  CB         9.6690   17.6210   33.2200 C.3    98  ASP98       0.1450
     49  CG        10.7790   16.7670   32.6330 C.2    98  ASP98       0.3671
     50  OD1       10.5750   15.5800   32.2300 O.co2  98  ASP98      -0.2456
     51  OD2       11.9300   17.2620   32.4690 O.co2  98  ASP98      -0.2456
     52  N          9.2560   16.0060   35.5990 N.am   99  SER99      -0.1936
     53  CA         9.2650   15.0730   36.7350 C.3    99  SER99       0.2055
     54  C          7.9970   15.2350   37.5650 C.2    99  SER99       0.2643
     55  O          7.6390   14.3320   38.2960 O.2    99  SER99      -0.2714
     56  CB        10.4510   15.3380   37.6740 C.3    99  SER99       0.2130
     57  OG        10.3530   16.6080   38.3470 O.3    99  SER99      -0.2179
     58  N          7.3360   16.3900   37.4100 N.am  100  ALA100     -0.1963
     59  CA         6.1830   16.7890   38.2180 C.3   100  ALA100      0.1728
     60  C          6.5020   17.0950   39.6860 C.2   100  ALA100      0.2616
     61  O          5.5850   17.2170   40.4860 O.2   100  ALA100     -0.2715
     62  CB         5.0460   15.7250   38.1950 C.3   100  ALA100      0.0334
     63  N          7.7660   17.1760   40.0530 N.am  101  ILE101     -0.1963
     64  CA         8.1050   17.6460   41.4110 C.3   101  ILE101      0.1727
     65  C          7.5000   19.0560   41.6930 C.2   101  ILE101      0.2617
     66  O          6.9130   19.3360   42.7730 O.2   101  ILE101     -0.2715
     67  CB         9.6620   17.7310   41.5400 C.3   101  ILE101      0.0290
     68  CG1       10.2720   16.3170   41.3980 C.3   101  ILE101      0.0022
     69  CG2       10.0940   18.4500   42.8660 C.3   101  ILE101      0.0023
     70  CD1       10.0230   15.4670   42.4820 C.3   101  ILE101      0.0001
     71  N          7.6820   19.9450   40.7310 N.am  102  THR102     -0.1937
     72  CA         7.1480   21.3160   40.8480 C.3   102  THR102      0.2028
     73  C          5.6390   21.3540   40.9900 C.2   102  THR102      0.2642
     74  O          5.1320   21.9900   41.9120 O.2   102  THR102     -0.2714
     75  CB         7.5810   22.1480   39.5920 C.3   102  THR102      0.1808
     76  OG1        8.9860   22.0230   39.5130 O.3   102  THR102     -0.2208
     77  CG2        7.3010   23.7310   39.7450 C.3   102  THR102      0.0379
     78  N          4.9430   20.7170   40.0360 N.am  103  LEU103     -0.1977
     79  CA         3.4940   20.7070   40.0020 C.3   103  LEU103      0.1596
     80  C          2.9740   20.0510   41.3050 C.2   103  LEU103      0.2287
     81  O          2.0760   20.5980   41.9910 O.2   103  LEU103     -0.2864
     82  CB         2.9670   19.9080   38.7720 C.3   103  LEU103      0.0297
     83  CG         1.4190   19.9160   38.7390 C.3   103  LEU103      0.0022
     84  CD1        0.8350   21.4730   38.8260 C.3   103  LEU103      0.0001
     85  CD2        0.8330   19.1760   37.4880 C.3   103  LEU103      0.0001
     86  N          5.4930   16.1600   29.6140 N.3   126  LYS126     -0.1245
     87  CA         6.5980   15.2400   29.3150 C.3   126  LYS126      0.1561
     88  C          6.4550   14.0500   30.2540 C.2   126  LYS126      0.2260
     89  O          7.2340   13.8840   31.2040 O.2   126  LYS126     -0.2867
     90  CB         7.9560   15.9150   29.6160 C.3   126  LYS126      0.0271
     91  CG         8.3050   17.1900   28.7120 C.3   126  LYS126      0.0035
     92  CD         9.5640   17.8680   29.2670 C.3   126  LYS126      0.0206
     93  CE        10.2470   18.6690   28.1750 C.3   126  LYS126      0.1093
     94  NZ        11.4630   19.3610   28.7260 N.3   126  LYS126     -0.1314
     95  N         12.4370   16.8380   25.2290 N.3   146  ALA146     -0.1231
     96  CA        13.3890   17.7260   24.5750 C.3   146  ALA146      0.1694
     97  C         13.5640   19.0290   25.3770 C.2   146  ALA146      0.2592
     98  O         12.7400   19.3520   26.2480 O.2   146  ALA146     -0.2718
     99  CB        12.9390   18.0180   23.1670 C.3   146  ALA146      0.0304
    100  N         14.6290   19.7860   25.1090 N.am  147  PHE147     -0.1962
    101  CA        14.6810   21.1090   25.6910 C.3   147  PHE147      0.1771
    102  C         13.9220   22.1630   24.8240 C.2   147  PHE147      0.2619
    103  O         14.2800   22.4150   23.6470 O.2   147  PHE147     -0.2715
    104  CB        16.0970   21.5460   26.0550 C.3   147  PHE147      0.0574
    105  CG        16.0960   22.7550   26.9700 C.ar  147  PHE147     -0.0200
    106  CD1       15.9580   24.0320   26.4400 C.ar  147  PHE147     -0.0042
    107  CD2       16.0900   22.6020   28.3570 C.ar  147  PHE147     -0.0042
    108  CE1       15.9070   25.1790   27.2480 C.ar  147  PHE147     -0.0003
    109  CE2       16.0410   23.7580   29.1920 C.ar  147  PHE147     -0.0003
    110  CZ        15.9470   25.0400   28.6260 C.ar  147  PHE147     -0.0000
    111  N         12.8810   22.7710   25.3800 N.am  148  VAL148     -0.1977
    112  CA        12.1040   23.6890   24.5460 C.3   148  VAL148      0.1596
    113  C         12.2410   25.1670   24.9360 C.2   148  VAL148      0.2287
    114  O         12.5070   25.4880   26.1070 O.2   148  VAL148     -0.2864
    115  CB        10.6310   23.2150   24.3460 C.3   148  VAL148      0.0276
    116  CG1       10.5690   21.6760   24.1450 C.3   148  VAL148      0.0022
    117  CG2        9.8030   23.5050   25.4960 C.3   148  VAL148      0.0022
    118  N          8.5830   30.2860   27.2830 N.3   153  MET153     -0.1230
    119  CA         9.6620   29.4450   27.7980 C.3   153  MET153      0.1702
    120  C         11.0700   29.8470   27.3700 C.2   153  MET153      0.2592
    121  O         11.3040   30.2550   26.2320 O.2   153  MET153     -0.2718
    122  CB         9.4080   27.9670   27.4160 C.3   153  MET153      0.0401
    123  CG         8.1080   27.4600   27.9940 C.3   153  MET153      0.0596
    124  SD         7.3360   26.0260   27.2250 S.3   153  MET153     -0.1393
    125  CE         6.4950   26.7710   25.7390 C.3   153  MET153      0.0692
    126  N         12.0410   29.6710   28.2660 N.am  154  ASP154     -0.1974
    127  CA        13.3810   30.2780   28.0490 C.3   154  ASP154      0.1709
    128  C         14.5610   29.2910   27.9370 C.2   154  ASP154      0.2293
    129  O         14.4430   28.1260   28.2960 O.2   154  ASP154     -0.2864
    130  CB        13.7310   31.1810   29.2220 C.3   154  ASP154      0.1436
    131  CG        14.1120   30.3450   30.4990 C.2   154  ASP154      0.3671
    132  OD1       13.3500   29.4110   30.8440 O.co2 154  ASP154     -0.2456
    133  OD2       15.1350   30.5600   31.1960 O.co2 154  ASP154     -0.2456
@<TRIPOS>BOND
     1    99    96    1
     2   103   102    2
     3   116   115    1
     4   115   112    1
     5   115   117    1
     6   112   113    1
     7   112   111    1
     8    96    95    1
     9    96    97    1
    10   102   111   am
    11   102   101    1
    12   113   114    2
    13   100    97   am
    14   100   101    1
    15    97    98    2
    16   101   104    1
    17   125   124    1
    18   104   105    1
    19   121   120    2
    20   106   105   ar
    21   106   108   ar
    22   105   107   ar
    23   124   123    1
    24   108   110   ar
    25   118   119    1
    26   120   119    1
    27   120   126   am
    28   122   119    1
    29   122   123    1
    30   128   127    1
    31   128   129    2
    32   127   126    1
    33   127   130    1
    34    93    94    1
    35    93    92    1
    36   107   109   ar
    37   110   109   ar
    38    91    92    1
    39    91    90    1
    40    36    34    1
    41   130   131    1
    42    34    33    1
    43    87    86    1
    44    87    90    1
    45    87    88    1
    46    24    23    2
    47    11    10    2
    48    88    89    2
    49    23    22    1
    50    23    29   am
    51    25    22    1
    52    25    26    1
    53   131   132   ar
    54   131   133   ar
    55    33    35    1
    56    33    30    1
    57    22    21    1
    58    30    29    1
    59    30    31    1
    60    10     9    1
    61    28    26   ar
    62    15    14    2
    63    26    27   ar
    64     9     8    1
    65    40    39    2
    66    21    14   am
    67    50    49   ar
    68    37    31   am
    69    37    38    1
    70    14    13    1
    71    31    32    2
    72    51    49   ar
    73    49    48    1
    74    39    38    1
    75    39    44   am
    76    48    45    1
    77    45    44    1
    78    45    46    1
    79    38    41    1
    80    13    12    1
    81    13    16    1
    82    41    43    1
    83    41    42    1
    84    16    17    1
    85    47    46    2
    86    46    52   am
    87    19    18   ar
    88     4     3    2
    89    52    53    1
    90    17    18    1
    91    18    20   ar
    92     3     2    1
    93    53    54    1
    94    53    56    1
    95     1     2    1
    96     2     5    1
    97    58    54   am
    98    58    59    1
    99     5     6    1
   100     5     7    1
   101    85    83    1
   102    54    55    2
   103    56    57    1
   104    62    59    1
   105    59    60    1
   106    83    82    1
   107    83    84    1
   108    82    79    1
   109    76    75    1
   110    75    77    1
   111    75    72    1
   112    60    63   am
   113    60    61    2
   114    79    78    1
   115    79    80    1
   116    78    73   am
   117    63    64    1
   118    71    72    1
   119    71    65   am
   120    72    73    1
   121    73    74    2
   122    80    81    2
   123    68    67    1
   124    68    70    1
   125    64    67    1
   126    64    65    1
   127    67    69    1
   128    65    66    2
