@<TRIPOS>MOLECULE
tmp/1pzmA00.pdb
 91 89 0 0 0
SMALL
GASTEIGER

@<TRIPOS>ATOM
      1  N          1.1760   46.9250   44.0950 N.3    75  SER75      -0.1217
      2  CA        -0.2080   47.0480   44.5850 C.3    75  SER75       0.1889
      3  C         -1.1010   45.8910   44.1210 C.2    75  SER75       0.2288
      4  O         -1.4940   45.8440   42.9530 O.2    75  SER75      -0.2866
      5  CB        -0.9190   48.3570   44.1320 C.3    75  SER75       0.2089
      6  OG        -1.0280   48.4810   42.7310 O.3    75  SER75      -0.2183
      7  N          3.2270   48.9030   31.4610 N.3    93  GLU93      -0.1231
      8  CA         2.0180   49.1810   32.2330 C.3    93  GLU93       0.1699
      9  C          0.7800   49.0580   31.3680 C.2    93  GLU93       0.2592
     10  O          0.7980   49.4290   30.1740 O.2    93  GLU93      -0.2718
     11  CB         2.0650   50.6200   32.7110 C.3    93  GLU93       0.0402
     12  CG         2.9730   50.8850   33.8550 C.3    93  GLU93       0.1161
     13  CD         2.2150   50.9590   35.1580 C.2    93  GLU93       0.3649
     14  OE1        1.5110   49.9750   35.5200 O.co2  93  GLU93      -0.2457
     15  OE2        2.3050   52.0450   35.7960 O.co2  93  GLU93      -0.2457
     16  N         -0.3210   48.6280   31.9710 N.am   94  ASP94      -0.1960
     17  CA        -1.5660   48.5960   31.2000 C.3    94  ASP94       0.1840
     18  C         -2.1860   49.9930   31.0440 C.2    94  ASP94       0.2622
     19  O         -2.5580   50.4010   29.9280 O.2    94  ASP94      -0.2715
     20  CB        -2.5750   47.6330   31.8100 C.3    94  ASP94       0.1450
     21  CG        -2.7080   47.7860   33.2920 C.2    94  ASP94       0.3671
     22  OD1       -2.0720   48.6530   33.9170 O.co2  94  ASP94      -0.2456
     23  OD2       -3.4740   47.0640   33.9520 O.co2  94  ASP94      -0.2456
     24  N         -2.2840   50.7280   32.1300 N.am   95  ILE95      -0.1963
     25  CA        -2.9870   52.0090   32.1230 C.3    95  ILE95       0.1727
     26  C         -2.3990   52.9020   33.1880 C.2    95  ILE95       0.2616
     27  O         -2.0830   52.4520   34.2940 O.2    95  ILE95      -0.2715
     28  CB        -4.5590   51.8130   32.2270 C.3    95  ILE95       0.0290
     29  CG1       -5.2800   53.1590   32.0780 C.3    95  ILE95       0.0022
     30  CG2       -4.9930   51.0580   33.5200 C.3    95  ILE95       0.0023
     31  CD1       -6.6900   52.9960   31.4820 C.3    95  ILE95       0.0001
     32  N         -2.2050   54.1640   32.8350 N.am   96  VAL96      -0.1963
     33  CA        -1.7020   55.1640   33.7640 C.3    96  VAL96       0.1727
     34  C         -2.7130   56.2820   33.9090 C.2    96  VAL96       0.2616
     35  O         -3.1260   56.9000   32.9160 O.2    96  VAL96      -0.2715
     36  CB        -0.3130   55.6970   33.3750 C.3    96  VAL96       0.0290
     37  CG1        0.1650   56.7660   34.3650 C.3    96  VAL96       0.0023
     38  CG2        0.7300   54.5470   33.3450 C.3    96  VAL96       0.0023
     39  N         -3.0900   56.5870   35.1500 N.am   97  ASP97      -0.1957
     40  CA        -4.1030   57.5800   35.3850 C.3    97  ASP97       0.1840
     41  C         -3.4660   58.7630   36.1570 C.2    97  ASP97       0.2623
     42  O         -2.9690   59.7050   35.5230 O.2    97  ASP97      -0.2715
     43  CB        -5.2960   56.8760   36.0690 C.3    97  ASP97       0.1450
     44  CG        -6.4570   57.8050   36.3560 C.2    97  ASP97       0.3671
     45  OD1       -6.5690   58.8860   35.7220 O.co2  97  ASP97      -0.2456
     46  OD2       -7.3330   57.5070   37.1980 O.co2  97  ASP97      -0.2456
     47  N         -3.3780   58.7110   37.5020 N.am   98  SER98      -0.1936
     48  CA        -2.7320   59.8200   38.2220 C.3    98  SER98       0.2055
     49  C         -1.2210   59.7680   38.0360 C.2    98  SER98       0.2643
     50  O         -0.5490   60.7720   38.2460 O.2    98  SER98      -0.2714
     51  CB        -3.0220   59.7390   39.7400 C.3    98  SER98       0.2130
     52  OG        -2.3790   58.5580   40.2780 O.3    98  SER98      -0.2179
     53  N         -0.7070   58.5860   37.7040 N.am   99  ALA99      -0.1963
     54  CA         0.7410   58.3350   37.5910 C.3    99  ALA99       0.1728
     55  C          1.4720   58.2160   38.9570 C.2    99  ALA99       0.2616
     56  O          2.6990   58.0710   38.9970 O.2    99  ALA99      -0.2715
     57  CB         1.4380   59.4310   36.6780 C.3    99  ALA99       0.0334
     58  N          0.7440   58.2460   40.0730 N.am  100  ILE100     -0.1963
     59  CA         1.4220   58.0700   41.3480 C.3   100  ILE100      0.1727
     60  C          2.1100   56.6960   41.3820 C.2   100  ILE100      0.2617
     61  O          3.2750   56.5760   41.7670 O.2   100  ILE100     -0.2715
     62  CB         0.4250   58.3280   42.5150 C.3   100  ILE100      0.0290
     63  CG1        0.0810   59.8310   42.5290 C.3   100  ILE100      0.0022
     64  CG2        0.9800   57.8730   43.9310 C.3   100  ILE100      0.0023
     65  CD1       -1.1020   60.1860   43.3330 C.3   100  ILE100      0.0001
     66  N          1.4190   55.6720   40.9080 N.am  101  THR101     -0.1937
     67  CA         1.9680   54.3230   40.9050 C.3   101  THR101      0.2028
     68  C          3.2560   54.2120   40.0670 C.2   101  THR101      0.2642
     69  O          4.2880   53.7010   40.5200 O.2   101  THR101     -0.2714
     70  CB         0.8940   53.3730   40.3030 C.3   101  THR101      0.1808
     71  OG1       -0.2820   53.4350   41.1300 O.3   101  THR101     -0.2208
     72  CG2        1.3620   51.9120   40.3330 C.3   101  THR101      0.0379
     73  N          3.1690   54.6780   38.8360 N.am  102  LEU102     -0.1977
     74  CA         4.2940   54.6480   37.9290 C.3   102  LEU102      0.1596
     75  C          5.4490   55.4440   38.5000 C.2   102  LEU102      0.2287
     76  O          6.5880   54.9850   38.4110 O.2   102  LEU102     -0.2864
     77  CB         3.9010   55.2220   36.5800 C.3   102  LEU102      0.0297
     78  CG         4.9810   55.1720   35.4790 C.3   102  LEU102      0.0022
     79  CD1        5.5730   53.6940   35.2330 C.3   102  LEU102      0.0001
     80  CD2        4.3990   55.7060   34.2180 C.3   102  LEU102      0.0001
     81  N        -13.4390   54.5510   33.1600 N.3   146  PHE146     -0.1241
     82  CA       -12.8990   53.3490   33.7580 C.3   146  PHE146      0.1605
     83  C        -12.9480   52.2050   32.7380 C.2   146  PHE146      0.2264
     84  O        -14.0140   51.8520   32.2580 O.2   146  PHE146     -0.2867
     85  CB       -13.6300   53.0200   35.0300 C.3   146  PHE146      0.0534
     86  CG       -12.9870   51.9110   35.8000 C.ar  146  PHE146     -0.0203
     87  CD1      -13.2700   50.5860   35.4970 C.ar  146  PHE146     -0.0042
     88  CD2      -12.0830   52.1910   36.7970 C.ar  146  PHE146     -0.0042
     89  CE1      -12.6860   49.5550   36.2270 C.ar  146  PHE146     -0.0003
     90  CE2      -11.4960   51.1810   37.5200 C.ar  146  PHE146     -0.0003
     91  CZ       -11.7960   49.8500   37.2250 C.ar  146  PHE146     -0.0000
@<TRIPOS>BOND
     1    19    18    2
     2    10     9    2
     3    18    17    1
     4    18    24   am
     5    17    20    1
     6    17    16    1
     7     9    16   am
     8     9     8    1
     9     7     8    1
    10    31    29    1
    11    20    21    1
    12    29    28    1
    13    25    24    1
    14    25    28    1
    15    25    26    1
    16    28    30    1
    17     8    11    1
    18    84    83    2
    19    11    12    1
    20    83    82    1
    21    32    26   am
    22    32    33    1
    23    35    34    2
    24    81    82    1
    25    26    27    2
    26    21    22   ar
    27    21    23   ar
    28    38    36    1
    29    36    33    1
    30    36    37    1
    31    82    85    1
    32    33    34    1
    33    12    13    1
    34    34    39   am
    35    80    78    1
    36    85    86    1
    37    39    40    1
    38    13    14   ar
    39    13    15   ar
    40    79    78    1
    41    40    43    1
    42    40    41    1
    43    78    77    1
    44    87    86   ar
    45    87    89   ar
    46    42    41    2
    47    45    44   ar
    48    86    88   ar
    49    43    44    1
    50    41    47   am
    51    89    91   ar
    52    44    46   ar
    53    77    74    1
    54    57    54    1
    55    88    90   ar
    56    91    90   ar
    57    47    48    1
    58    54    53    1
    59    54    55    1
    60    53    49   am
    61    74    75    1
    62    74    73    1
    63    49    48    1
    64    49    50    2
    65    48    51    1
    66    76    75    2
    67    73    68   am
    68    55    56    2
    69    55    58   am
    70    51    52    1
    71    68    69    2
    72    68    67    1
    73    58    59    1
    74    70    72    1
    75    70    67    1
    76    70    71    1
    77    67    66    1
    78    66    60   am
    79    59    60    1
    80    59    62    1
    81    60    61    2
    82    62    63    1
    83    62    64    1
    84    63    65    1
    85     6     5    1
    86     4     3    2
    87     1     2    1
    88     3     2    1
    89     5     2    1
