@<TRIPOS>MOLECULE
tmp/1pznG00.pdb
 81 75 0 0 0
SMALL
GASTEIGER

@<TRIPOS>ATOM
      1  N       -138.6540 -179.7170 -127.2180 N.3    44  PHE44      -0.1227
      2  CA      -138.8230 -180.6020 -126.0690 C.3    44  PHE44       0.1736
      3  C       -139.2320 -181.9770 -126.5850 C.2    44  PHE44       0.2596
      4  O       -140.1140 -182.0960 -127.4370 O.2    44  PHE44      -0.2718
      5  CB      -139.9030 -180.0480 -125.1350 C.3    44  PHE44       0.0547
      6  CG      -140.2880 -180.9810 -124.0260 C.ar   44  PHE44      -0.0202
      7  CD1     -141.0630 -182.1100 -124.2780 C.ar   44  PHE44      -0.0042
      8  CD2     -139.8790 -180.7290 -122.7210 C.ar   44  PHE44      -0.0042
      9  CE1     -141.4280 -182.9750 -123.2460 C.ar   44  PHE44      -0.0003
     10  CE2     -140.2390 -181.5880 -121.6780 C.ar   44  PHE44      -0.0003
     11  CZ      -141.0150 -182.7120 -121.9420 C.ar   44  PHE44      -0.0000
     12  N       -138.5910 -183.0170 -126.0680 N.am   45  GLY45      -0.1957
     13  CA      -138.9080 -184.3670 -126.5080 C.3    45  GLY45       0.1869
     14  C       -138.1670 -184.8220 -127.7620 C.2    45  GLY45       0.2309
     15  O       -138.5010 -185.8650 -128.3390 O.2    45  GLY45      -0.2863
     16  N       -135.4140 -185.8460 -127.7100 N.3    47  GLY47      -0.1225
     17  CA      -134.5040 -186.8450 -127.1970 C.3    47  GLY47       0.1811
     18  C       -133.0920 -186.4370 -126.8200 C.2    47  GLY47       0.2280
     19  O       -132.2250 -187.3030 -126.6800 O.2    47  GLY47      -0.2866
     20  N       -132.0370 -185.4550 -124.0160 N.3    49  THR49      -0.1203
     21  CA      -131.7090 -185.8940 -122.6590 C.3    49  THR49       0.1994
     22  C       -131.4400 -187.4100 -122.6710 C.2    49  THR49       0.2617
     23  O       -130.7680 -187.9440 -121.7850 O.2    49  THR49      -0.2717
     24  CB      -132.8440 -185.5730 -121.6620 C.3    49  THR49       0.1784
     25  OG1     -133.1280 -184.1690 -121.6990 O.3    49  THR49      -0.2211
     26  CG2     -132.4230 -185.9300 -120.2590 C.3    49  THR49       0.0376
     27  N       -131.9720 -188.1000 -123.6810 N.am   50  GLN50      -0.1979
     28  CA      -131.7490 -189.5380 -123.8030 C.3    50  GLN50       0.1601
     29  C       -130.3150 -189.7010 -124.2620 C.2    50  GLN50       0.2287
     30  O       -129.5460 -190.4930 -123.7010 O.2    50  GLN50      -0.2864
     31  CB      -132.6880 -190.1600 -124.8370 C.3    50  GLN50       0.0394
     32  CG      -134.1580 -190.1760 -124.4310 C.3    50  GLN50       0.0908
     33  CD      -134.4400 -190.9890 -123.1680 C.2    50  GLN50       0.2608
     34  OE1     -135.5920 -191.1300 -122.7630 O.2    50  GLN50      -0.2717
     35  NE2     -133.3890 -191.5190 -122.5420 N.am   50  GLN50      -0.0878
     36  N       -132.6920 -194.8400 -115.2580 N.3    84  ARG84      -0.1245
     37  CA      -132.7420 -194.9180 -116.7170 C.3    84  ARG84       0.1563
     38  C       -131.4070 -195.4440 -117.2170 C.2    84  ARG84       0.2260
     39  O       -131.3290 -196.0960 -118.2570 O.2    84  ARG84      -0.2867
     40  CB      -133.0030 -193.5430 -117.3190 C.3    84  ARG84       0.0307
     41  CG      -132.7580 -193.4650 -118.8060 C.3    84  ARG84       0.0489
     42  CD      -133.6060 -194.4390 -119.5840 C.3    84  ARG84       0.2205
     43  NE      -133.4910 -194.1670 -121.0130 N.pl3  84  ARG84      -0.0865
     44  CZ      -133.9520 -194.9600 -121.9780 C.cat  84  ARG84       0.5346
     45  NH1     -133.7930 -194.6210 -123.2570 N.pl3  84  ARG84       0.1354
     46  NH2     -134.5680 -196.0950 -121.6710 N.pl3  84  ARG84       0.1354
     47  N       -137.8220 -184.5300 -133.7460 N.3   203  LYS203     -0.1245
     48  CA      -138.5920 -185.7580 -133.7510 C.3   203  LYS203      0.1561
     49  C       -138.8630 -186.0540 -135.2290 C.2   203  LYS203      0.2260
     50  O       -139.2290 -185.1630 -135.9940 O.2   203  LYS203     -0.2867
     51  CB      -139.9000 -185.5360 -132.9760 C.3   203  LYS203      0.0271
     52  CG      -140.7240 -186.8050 -132.7150 C.3   203  LYS203      0.0035
     53  CD      -141.9420 -186.5300 -131.8170 C.3   203  LYS203      0.0206
     54  CE      -141.5010 -185.8700 -130.4800 C.3   203  LYS203      0.1093
     55  NZ      -142.6790 -185.5830 -129.6360 N.3   203  LYS203     -0.1314
     56  N       -135.7300 -190.0060 -134.2350 N.3   209  ARG209     -0.1245
     57  CA      -135.1500 -188.6730 -134.2280 C.3   209  ARG209      0.1563
     58  C       -134.0890 -188.5410 -135.3110 C.2   209  ARG209      0.2260
     59  O       -133.3150 -189.4640 -135.5500 O.2   209  ARG209     -0.2867
     60  CB      -134.5340 -188.3570 -132.8620 C.3   209  ARG209      0.0307
     61  CG      -135.5500 -188.0790 -131.7630 C.3   209  ARG209      0.0489
     62  CD      -135.9970 -189.3490 -131.0620 C.3   209  ARG209      0.2205
     63  NE      -137.0380 -189.0930 -130.0660 N.pl3 209  ARG209     -0.0865
     64  CZ      -138.2930 -188.7730 -130.3630 C.cat 209  ARG209      0.5346
     65  NH1     -138.6700 -188.6710 -131.6310 N.pl3 209  ARG209      0.1354
     66  NH2     -139.1730 -188.5610 -129.3930 N.pl3 209  ARG209      0.1354
     67  N       -134.9930 -194.2080 -129.9190 N.3   228  ILE228     -0.1231
     68  CA      -134.8490 -194.2980 -128.4720 C.3   228  ILE228      0.1692
     69  C       -135.3860 -195.6650 -128.0380 C.2   228  ILE228      0.2592
     70  O       -136.5360 -196.0030 -128.3130 O.2   228  ILE228     -0.2718
     71  CB      -135.6660 -193.2010 -127.7490 C.3   228  ILE228      0.0266
     72  CG1     -135.5670 -191.8690 -128.5090 C.3   228  ILE228      0.0019
     73  CG2     -135.1710 -193.0610 -126.3140 C.3   228  ILE228      0.0020
     74  CD1     -134.5490 -190.8760 -127.9700 C.3   228  ILE228      0.0001
     75  N       -134.5500 -196.4470 -127.3640 N.am  229  THR229     -0.1953
     76  CA      -134.9410 -197.7780 -126.9050 C.3   229  THR229      0.1897
     77  C       -134.1060 -198.0720 -125.6740 C.2   229  THR229      0.2313
     78  O       -133.5100 -197.1590 -125.1050 O.2   229  THR229     -0.2863
     79  CB      -134.6090 -198.8460 -127.9630 C.3   229  THR229      0.1794
     80  OG1     -133.1950 -198.8480 -128.2060 O.3   229  THR229     -0.2208
     81  CG2     -135.3290 -198.5510 -129.2670 C.3   229  THR229      0.0378
@<TRIPOS>BOND
     1    50    49    2
     2    59    58    2
     3    58    57    1
     4    49    48    1
     5    56    57    1
     6    57    60    1
     7    48    47    1
     8    48    51    1
     9    51    52    1
    10    60    61    1
    11    52    53    1
    12    53    54    1
    13    61    62    1
    14    65    64    1
    15    62    63    1
    16    54    55    1
    17    64    63    2
    18    64    66    1
    19    67    68    1
    20    81    79    1
    21    72    74    1
    22    72    71    1
    23    68    69    1
    24    68    71    1
    25    15    14    2
    26    70    69    2
    27    80    79    1
    28    69    75   am
    29    79    76    1
    30    14    13    1
    31    71    73    1
    32    16    17    1
    33     4     3    2
    34    75    76    1
    35     1     2    1
    36    17    18    1
    37    76    77    1
    38    18    19    2
    39     3     2    1
    40     3    12   am
    41    13    12    1
    42     2     5    1
    43    77    78    2
    44     5     6    1
    45    31    32    1
    46    31    28    1
    47    32    33    1
    48     7     6   ar
    49     7     9   ar
    50    29    28    1
    51    29    30    2
    52     6     8   ar
    53    20    21    1
    54    28    27    1
    55    27    22   am
    56    45    44    1
    57     9    11   ar
    58    33    34    2
    59    33    35   am
    60     8    10   ar
    61    22    21    1
    62    22    23    2
    63    21    24    1
    64    44    46    1
    65    44    43    2
    66    11    10   ar
    67    25    24    1
    68    24    26    1
    69    43    42    1
    70    42    41    1
    71    41    40    1
    72    39    38    2
    73    40    37    1
    74    38    37    1
    75    37    36    1
