@<TRIPOS>MOLECULE
tmp/1pzoA00.pdb
 121 112 0 0 0
SMALL
GASTEIGER

@<TRIPOS>ATOM
      1  N         10.2610    5.0600   35.5900 N.3    45  SER45      -0.1217
      2  CA         8.9730    5.2820   36.2380 C.3    45  SER45       0.1889
      3  C          7.8300    4.5890   35.5300 C.2    45  SER45       0.2288
      4  O          6.7200    4.5000   36.1010 O.2    45  SER45      -0.2866
      5  CB         8.6760    6.7850   36.3700 C.3    45  SER45       0.2089
      6  OG         9.3760    7.3490   37.4900 O.3    45  SER45      -0.2183
      7  N          4.6530   10.6940   39.1410 N.3   105  SER105     -0.1217
      8  CA         5.9680   10.0210   39.2700 C.3   105  SER105      0.1889
      9  C          6.6260   10.1760   40.6170 C.2   105  SER105      0.2288
     10  O          7.8440   10.1930   40.7040 O.2   105  SER105     -0.2866
     11  CB         7.0130   10.3710   38.1710 C.3   105  SER105      0.2089
     12  OG         6.5380   10.0870   36.8850 O.3   105  SER105     -0.2183
     13  N          2.3420   14.3870   33.8510 N.3   191  VAL191     -0.1231
     14  CA         3.7010   14.5820   33.4040 C.3   191  VAL191      0.1692
     15  C          3.7330   14.5700   31.8720 C.2   191  VAL191      0.2591
     16  O          3.9080   15.6500   31.2000 O.2   191  VAL191     -0.2718
     17  CB         4.6860   13.5150   33.9760 C.3   191  VAL191      0.0266
     18  CG1        6.0680   13.7100   33.4070 C.3   191  VAL191      0.0020
     19  CG2        4.7210   13.5240   35.5670 C.3   191  VAL191      0.0020
     20  N          3.4820   13.4060   31.2930 N.am  192  ALA192     -0.1980
     21  CA         3.3800   13.3760   29.8110 C.3   192  ALA192      0.1597
     22  C          1.9450   13.5410   29.2370 C.2   192  ALA192      0.2287
     23  O          1.7760   14.0380   28.1160 O.2   192  ALA192     -0.2864
     24  CB         4.0370   12.0740   29.2710 C.3   192  ALA192      0.0319
     25  N          0.7800   16.8630   27.5110 N.3   195  LEU195     -0.1245
     26  CA         1.4790   17.0300   26.2290 C.3   195  LEU195      0.1561
     27  C          0.8800   16.1710   25.1160 C.2   195  LEU195      0.2260
     28  O          0.7020   16.6320   23.9750 O.2   195  LEU195     -0.2867
     29  CB         2.9850   16.7300   26.3730 C.3   195  LEU195      0.0270
     30  CG         3.6840   17.6540   27.4090 C.3   195  LEU195      0.0019
     31  CD1        5.1930   17.5950   27.2380 C.3   195  LEU195      0.0001
     32  CD2        3.1780   19.0810   27.2450 C.3   195  LEU195      0.0001
     33  N          5.0540    7.7480   31.6300 N.3   210  SER210     -0.1202
     34  CA         6.4430    7.9670   31.1250 C.3   210  SER210      0.2020
     35  C          7.4900    7.8720   32.1740 C.2   210  SER210      0.2619
     36  O          7.1990    7.8490   33.3850 O.2   210  SER210     -0.2717
     37  CB         6.5580    9.3670   30.4170 C.3   210  SER210      0.2103
     38  OG         6.3370   10.4350   31.3220 O.3   210  SER210     -0.2182
     39  N          8.7530    7.8580   31.7420 N.am  211  GLY211     -0.1942
     40  CA         9.8580    7.7900   32.7030 C.3   211  GLY211      0.2014
     41  C         11.1210    8.3670   32.0600 C.2   211  GLY211      0.2638
     42  O         11.1930    8.5360   30.8470 O.2   211  GLY211     -0.2714
     43  N         12.0500    8.7930   32.9060 N.am  212  ALA212     -0.1977
     44  CA        13.3430    9.2780   32.4680 C.3   212  ALA212      0.1597
     45  C         14.3370    8.8660   33.5270 C.2   212  ALA212      0.2287
     46  O         14.0190    8.8060   34.7390 O.2   212  ALA212     -0.2864
     47  CB        13.3290   10.8320   32.3220 C.3   212  ALA212      0.0319
     48  N         14.8460    7.2860   28.7180 N.3   218  ARG218     -0.1231
     49  CA        13.4540    7.7400   28.7840 C.3   218  ARG218      0.1694
     50  C         12.5140    6.7230   28.1650 C.2   218  ARG218      0.2593
     51  O         12.9330    5.8420   27.4440 O.2   218  ARG218     -0.2718
     52  CB        13.2590    9.1430   28.2200 C.3   218  ARG218      0.0321
     53  CG        13.2730    9.3050   26.7560 C.3   218  ARG218      0.0489
     54  CD        12.6460   10.6610   26.2700 C.3   218  ARG218      0.2205
     55  NE        13.2850   11.8480   26.8750 N.pl3 218  ARG218     -0.0865
     56  CZ        12.8110   13.1090   26.7910 C.cat 218  ARG218      0.5346
     57  NH1       13.4450   14.1110   27.3850 N.pl3 218  ARG218      0.1354
     58  NH2       11.7050   13.3530   26.1240 N.pl3 218  ARG218      0.1354
     59  N         11.2320    6.8180   28.4790 N.am  219  GLY219     -0.1942
     60  CA        10.3300    5.9390   27.8170 C.3   219  GLY219      0.2014
     61  C          8.9180    6.2680   28.1750 C.2   219  GLY219      0.2638
     62  O          8.6340    7.1120   29.0240 O.2   219  GLY219     -0.2714
     63  N          8.0200    5.5960   27.4830 N.am  220  ILE220     -0.1977
     64  CA         6.6250    5.7970   27.7370 C.3   220  ILE220      0.1596
     65  C          5.8500    4.5700   27.2990 C.2   220  ILE220      0.2287
     66  O          6.1430    3.9260   26.2610 O.2   220  ILE220     -0.2864
     67  CB         6.1320    7.0400   26.9570 C.3   220  ILE220      0.0276
     68  CG1        4.7000    7.3570   27.3770 C.3   220  ILE220      0.0022
     69  CG2        6.1970    6.7770   25.3720 C.3   220  ILE220      0.0022
     70  CD1        4.2970    8.8070   27.0040 C.3   220  ILE220      0.0001
     71  N          7.5310    3.0960   23.7830 N.3   236  ILE236     -0.1231
     72  CA         8.8080    3.6090   23.2800 C.3   236  ILE236      0.1692
     73  C          9.8240    3.6710   24.3990 C.2   236  ILE236      0.2592
     74  O          9.5290    4.1920   25.4720 O.2   236  ILE236     -0.2718
     75  CB         8.6550    5.0460   22.6580 C.3   236  ILE236      0.0266
     76  CG1        7.4640    5.1400   21.7160 C.3   236  ILE236      0.0019
     77  CG2        9.9320    5.4680   22.0050 C.3   236  ILE236      0.0020
     78  CD1        7.0130    6.6010   21.3590 C.3   236  ILE236      0.0001
     79  N         11.0210    3.0990   24.1890 N.am  237  TYR237     -0.1962
     80  CA        12.1000    3.2930   25.1670 C.3   237  TYR237      0.1771
     81  C         13.3610    3.8250   24.4190 C.2   237  TYR237      0.2620
     82  O         13.5860    3.5140   23.2110 O.2   237  TYR237     -0.2715
     83  CB        12.4540    2.0120   25.9210 C.3   237  TYR237      0.0574
     84  CG        11.4210    1.6380   26.9410 C.ar  237  TYR237     -0.0198
     85  CD1       11.3460    2.3130   28.1730 C.ar  237  TYR237     -0.0009
     86  CD2       10.5780    0.5270   26.7180 C.ar  237  TYR237     -0.0009
     87  CE1       10.3680    1.9800   29.1420 C.ar  237  TYR237      0.0417
     88  CE2        9.6470    0.1530   27.6790 C.ar  237  TYR237      0.0417
     89  CZ         9.5290    0.9030   28.8780 C.ar  237  TYR237      0.1957
     90  OH         8.5660    0.4560   29.7680 O.3   237  TYR237     -0.2866
     91  N         14.1870    4.5640   25.1560 N.am  238  THR238     -0.1951
     92  CA        15.4860    4.8690   24.6050 C.3   238  THR238      0.1897
     93  C         16.5030    4.9420   25.6710 C.2   238  THR238      0.2313
     94  O         16.2210    5.3550   26.7810 O.2   238  THR238     -0.2863
     95  CB        15.4420    6.1810   23.7750 C.3   238  THR238      0.1794
     96  OG1       16.7720    6.5010   23.2670 O.3   238  THR238     -0.2208
     97  CG2       14.9890    7.3750   24.6520 C.3   238  THR238      0.0378
     98  N         17.5190   17.5260   26.3010 N.3   245  MET245     -0.1245
     99  CA        16.1270   17.1350   26.4400 C.3   245  MET245      0.1570
    100  C         15.2270   17.6960   25.3100 C.2   245  MET245      0.2261
    101  O         14.2710   17.0610   24.8960 O.2   245  MET245     -0.2867
    102  CB        15.6500   17.4960   27.8210 C.3   245  MET245      0.0387
    103  CG        16.8220   17.3740   28.7940 C.3   245  MET245      0.0595
    104  SD        16.5620   16.0610   29.9980 S.3   245  MET245     -0.1393
    105  CE        18.4640   15.3310   30.3510 C.3   245  MET245      0.0692
    106  N         12.8800   15.3620   23.0940 N.3   249  ASN249     -0.1240
    107  CA        11.4390   15.6240   22.9710 C.3   249  ASN249      0.1653
    108  C         10.9690   15.7680   21.5200 C.2   249  ASN249      0.2266
    109  O          9.8860   15.3270   21.1630 O.2   249  ASN249     -0.2867
    110  CB        11.0590   16.9110   23.7360 C.3   249  ASN249      0.1155
    111  CG        11.3050   16.8060   25.1840 C.2   249  ASN249      0.2627
    112  OD1       11.4560   15.7320   25.7000 O.2   249  ASN249     -0.2716
    113  ND2       11.3720   17.9420   25.8600 N.am  249  ASN249     -0.0877
    114  N         10.6570   12.3620   19.9300 N.3   252  ILE252     -0.1245
    115  CA         9.4610   11.6940   20.3690 C.3   252  ILE252      0.1561
    116  C          8.2750   12.2960   19.6130 C.2   252  ILE252      0.2260
    117  O          7.3850   11.5520   19.1340 O.2   252  ILE252     -0.2867
    118  CB         9.2100   11.7710   21.8840 C.3   252  ILE252      0.0252
    119  CG1       10.2800   11.0800   22.6920 C.3   252  ILE252      0.0019
    120  CG2        7.8520   11.0920   22.2510 C.3   252  ILE252      0.0019
    121  CD1       10.6000    9.7050   22.2050 C.3   252  ILE252      0.0001
@<TRIPOS>BOND
     1   117   116    2
     2   116   115    1
     3   114   115    1
     4   115   118    1
     5   109   108    2
     6    78    76    1
     7   108   107    1
     8    76    75    1
     9   118   120    1
    10   118   119    1
    11    77    75    1
    12   121   119    1
    13    75    72    1
    14   107   106    1
    15   107   110    1
    16    82    81    2
    17    96    95    1
    18    72    71    1
    19    72    73    1
    20   110   111    1
    21    95    92    1
    22    95    97    1
    23    28    27    2
    24    79    73   am
    25    79    80    1
    26    73    74    2
    27    81    91   am
    28    81    80    1
    29    92    91    1
    30    92    93    1
    31   101   100    2
    32    27    26    1
    33    80    83    1
    34   111   112    2
    35   111   113   am
    36   100    99    1
    37    69    67    1
    38    93    94    2
    39    83    84    1
    40    58    56    1
    41    26    29    1
    42    26    25    1
    43    66    65    2
    44    54    53    1
    45    54    55    1
    46    98    99    1
    47    29    30    1
    48    99   102    1
    49    86    84   ar
    50    86    88   ar
    51    53    52    1
    52    56    55    2
    53    56    57    1
    54    84    85   ar
    55    67    68    1
    56    67    64    1
    57    70    68    1
    58    31    30    1
    59    32    30    1
    60    65    64    1
    61    51    50    2
    62    63    64    1
    63    63    61   am
    64    88    89   ar
    65    60    61    1
    66    60    59    1
    67   102   103    1
    68    23    22    2
    69    50    59   am
    70    50    49    1
    71    85    87   ar
    72    61    62    2
    73    52    49    1
    74    48    49    1
    75   103   104    1
    76    89    87   ar
    77    89    90    1
    78    22    21    1
    79    24    21    1
    80    21    20    1
    81   104   105    1
    82    37    34    1
    83    37    38    1
    84    42    41    2
    85    34    33    1
    86    34    35    1
    87    16    15    2
    88    20    15   am
    89    39    35   am
    90    39    40    1
    91    15    14    1
    92    41    40    1
    93    41    43   am
    94    35    36    2
    95    47    44    1
    96    44    43    1
    97    44    45    1
    98    14    13    1
    99    14    17    1
   100    18    17    1
   101    45    46    2
   102    17    19    1
   103     3     4    2
   104     3     2    1
   105     1     2    1
   106     2     5    1
   107     5     6    1
   108    12    11    1
   109    11     8    1
   110     7     8    1
   111     8     9    1
   112     9    10    2
