@<TRIPOS>MOLECULE
tmp/1pzoA01.pdb
 147 134 0 0 0
SMALL
GASTEIGER

@<TRIPOS>ATOM
      1  N         10.6630    0.2590   20.0460 N.3    21  TYR21      -0.1241
      2  CA         9.3580    0.8190   19.6540 C.3    21  TYR21       0.1605
      3  C          8.4610   -0.3500   19.3130 C.2    21  TYR21       0.2264
      4  O          8.8820   -1.3140   18.6010 O.2    21  TYR21      -0.2867
      5  CB         9.4760    1.6780   18.3780 C.3    21  TYR21       0.0534
      6  CG         8.1780    2.1830   17.8980 C.ar   21  TYR21      -0.0201
      7  CD1        7.5630    3.2310   18.5360 C.ar   21  TYR21      -0.0009
      8  CD2        7.5510    1.6380   16.7690 C.ar   21  TYR21      -0.0009
      9  CE1        6.3240    3.7300   18.1060 C.ar   21  TYR21       0.0417
     10  CE2        6.3380    2.1240   16.3420 C.ar   21  TYR21       0.0417
     11  CZ         5.7290    3.1750   17.0170 C.ar   21  TYR21       0.1957
     12  OH         4.5190    3.7120   16.6230 O.3    21  TYR21      -0.2866
     13  N          3.4820   13.4060   31.2930 N.3   192  ALA192     -0.1245
     14  CA         3.3800   13.3760   29.8110 C.3   192  ALA192      0.1562
     15  C          1.9450   13.5410   29.2370 C.2   192  ALA192      0.2260
     16  O          1.7760   14.0380   28.1160 O.2   192  ALA192     -0.2867
     17  CB         4.0370   12.0740   29.2710 C.3   192  ALA192      0.0290
     18  N          0.7800   16.8630   27.5110 N.3   195  LEU195     -0.1231
     19  CA         1.4790   17.0300   26.2290 C.3   195  LEU195      0.1693
     20  C          0.8800   16.1710   25.1160 C.2   195  LEU195      0.2591
     21  O          0.7020   16.6320   23.9750 O.2   195  LEU195     -0.2718
     22  CB         2.9850   16.7300   26.3730 C.3   195  LEU195      0.0284
     23  CG         3.6840   17.6540   27.4090 C.3   195  LEU195      0.0019
     24  CD1        5.1930   17.5950   27.2380 C.3   195  LEU195      0.0001
     25  CD2        3.1780   19.0810   27.2450 C.3   195  LEU195      0.0001
     26  N          0.5780   14.9360   25.4330 N.am  196  LEU196     -0.1980
     27  CA        -0.0490   14.0740   24.4710 C.3   196  LEU196      0.1596
     28  C         -1.4310   14.5960   24.1290 C.2   196  LEU196      0.2287
     29  O         -1.7710   14.7300   22.9760 O.2   196  LEU196     -0.2864
     30  CB        -0.1790   12.6740   25.0660 C.3   196  LEU196      0.0297
     31  CG         1.1560   12.0030   25.0870 C.3   196  LEU196      0.0022
     32  CD1        1.1560   11.0050   26.2880 C.3   196  LEU196      0.0001
     33  CD2        1.3710   11.3220   23.7530 C.3   196  LEU196      0.0001
     34  N         -1.3670   17.6630   21.8630 N.3   199  ALA199     -0.1231
     35  CA        -0.9370   17.3450   20.4690 C.3   199  ALA199      0.1694
     36  C         -1.9590   16.5820   19.6110 C.2   199  ALA199      0.2591
     37  O         -2.0480   16.7900   18.3740 O.2   199  ALA199     -0.2718
     38  CB         0.4610   16.6590   20.4190 C.3   199  ALA199      0.0304
     39  N         -2.6920   15.6640   20.2580 N.am  200  LEU200     -0.1980
     40  CA        -3.5810   14.7530   19.5580 C.3   200  LEU200      0.1596
     41  C         -4.8690   15.5080   19.2560 C.2   200  LEU200      0.2287
     42  O         -5.1290   16.5340   19.8810 O.2   200  LEU200     -0.2864
     43  CB        -3.8940   13.5520   20.4460 C.3   200  LEU200      0.0297
     44  CG        -2.7080   12.6440   20.7080 C.3   200  LEU200      0.0022
     45  CD1       -3.0240   11.7120   21.8660 C.3   200  LEU200      0.0001
     46  CD2       -2.3320   11.8450   19.4390 C.3   200  LEU200      0.0001
     47  N         14.8460    7.2860   28.7180 N.3   218  ARG218     -0.1245
     48  CA        13.4540    7.7400   28.7840 C.3   218  ARG218      0.1563
     49  C         12.5140    6.7230   28.1650 C.2   218  ARG218      0.2260
     50  O         12.9330    5.8420   27.4440 O.2   218  ARG218     -0.2867
     51  CB        13.2590    9.1430   28.2200 C.3   218  ARG218      0.0307
     52  CG        13.2730    9.3050   26.7560 C.3   218  ARG218      0.0489
     53  CD        12.6460   10.6610   26.2700 C.3   218  ARG218      0.2205
     54  NE        13.2850   11.8480   26.8750 N.pl3 218  ARG218     -0.0865
     55  CZ        12.8110   13.1090   26.7910 C.cat 218  ARG218      0.5346
     56  NH1       13.4450   14.1110   27.3850 N.pl3 218  ARG218      0.1354
     57  NH2       11.7050   13.3530   26.1240 N.pl3 218  ARG218      0.1354
     58  N          8.0200    5.5960   27.4830 N.3   220  ILE220     -0.1245
     59  CA         6.6250    5.7970   27.7370 C.3   220  ILE220      0.1561
     60  C          5.8500    4.5700   27.2990 C.2   220  ILE220      0.2260
     61  O          6.1430    3.9260   26.2610 O.2   220  ILE220     -0.2867
     62  CB         6.1320    7.0400   26.9570 C.3   220  ILE220      0.0252
     63  CG1        4.7000    7.3570   27.3770 C.3   220  ILE220      0.0019
     64  CG2        6.1970    6.7770   25.3720 C.3   220  ILE220      0.0019
     65  CD1        4.2970    8.8070   27.0040 C.3   220  ILE220      0.0001
     66  N          1.6490    3.5370   26.5580 N.3   222  ALA222     -0.1245
     67  CA         0.3900    4.2560   26.3020 C.3   222  ALA222      0.1562
     68  C         -0.6870    3.4150   25.6560 C.2   222  ALA222      0.2260
     69  O         -0.3970    2.5290   24.8360 O.2   222  ALA222     -0.2867
     70  CB         0.6320    5.5500   25.4230 C.3   222  ALA222      0.0290
     71  N         -4.0310    4.2590   23.4200 N.3   224  LEU224     -0.1245
     72  CA        -4.7100    5.3970   22.8640 C.3   224  LEU224      0.1561
     73  C         -5.6670    5.0390   21.7590 C.2   224  LEU224      0.2260
     74  O         -5.5890    3.9630   21.1720 O.2   224  LEU224     -0.2867
     75  CB        -3.6790    6.4410   22.3940 C.3   224  LEU224      0.0270
     76  CG        -2.9440    6.3060   21.0960 C.3   224  LEU224      0.0019
     77  CD1       -1.9990    7.5250   20.9150 C.3   224  LEU224      0.0001
     78  CD2       -2.0780    5.0590   21.1570 C.3   224  LEU224      0.0001
     79  N          1.1280    1.5580   22.5990 N.3   234  VAL234     -0.1245
     80  CA         2.4060    1.9930   21.9830 C.3   234  VAL234      0.1561
     81  C          3.3940    2.0460   23.1060 C.2   234  VAL234      0.2260
     82  O          3.0910    2.5780   24.2010 O.2   234  VAL234     -0.2867
     83  CB         2.2620    3.3710   21.3020 C.3   234  VAL234      0.0252
     84  CG1        3.5830    3.8750   20.7000 C.3   234  VAL234      0.0019
     85  CG2        1.2640    3.2740   20.1410 C.3   234  VAL234      0.0019
     86  N          7.5310    3.0960   23.7830 N.3   236  ILE236     -0.1245
     87  CA         8.8080    3.6090   23.2800 C.3   236  ILE236      0.1561
     88  C          9.8240    3.6710   24.3990 C.2   236  ILE236      0.2260
     89  O          9.5290    4.1920   25.4720 O.2   236  ILE236     -0.2867
     90  CB         8.6550    5.0460   22.6580 C.3   236  ILE236      0.0252
     91  CG1        7.4640    5.1400   21.7160 C.3   236  ILE236      0.0019
     92  CG2        9.9320    5.4680   22.0050 C.3   236  ILE236      0.0019
     93  CD1        7.0130    6.6010   21.3590 C.3   236  ILE236      0.0001
     94  N         12.8800   15.3620   23.0940 N.3   249  ASN249     -0.1240
     95  CA        11.4390   15.6240   22.9710 C.3   249  ASN249      0.1653
     96  C         10.9690   15.7680   21.5200 C.2   249  ASN249      0.2266
     97  O          9.8860   15.3270   21.1630 O.2   249  ASN249     -0.2867
     98  CB        11.0590   16.9110   23.7360 C.3   249  ASN249      0.1155
     99  CG        11.3050   16.8060   25.1840 C.2   249  ASN249      0.2627
    100  OD1       11.4560   15.7320   25.7000 O.2   249  ASN249     -0.2716
    101  ND2       11.3720   17.9420   25.8600 N.am  249  ASN249     -0.0877
    102  N         10.6570   12.3620   19.9300 N.3   252  ILE252     -0.1231
    103  CA         9.4610   11.6940   20.3690 C.3   252  ILE252      0.1692
    104  C          8.2750   12.2960   19.6130 C.2   252  ILE252      0.2591
    105  O          7.3850   11.5520   19.1340 O.2   252  ILE252     -0.2718
    106  CB         9.2100   11.7710   21.8840 C.3   252  ILE252      0.0266
    107  CG1       10.2800   11.0800   22.6920 C.3   252  ILE252      0.0019
    108  CG2        7.8520   11.0920   22.2510 C.3   252  ILE252      0.0020
    109  CD1       10.6000    9.7050   22.2050 C.3   252  ILE252      0.0001
    110  N          8.2420   13.6280   19.5020 N.am  253  ALA253     -0.1980
    111  CA         7.1410   14.2570   18.7870 C.3   253  ALA253      0.1597
    112  C          7.0360   13.7830   17.3110 C.2   253  ALA253      0.2287
    113  O          5.9260   13.5580   16.7860 O.2   253  ALA253     -0.2864
    114  CB         7.1790   15.8530   18.9420 C.3   253  ALA253      0.0319
    115  N          7.9520   10.9080   16.0750 N.3   255  ILE255     -0.1231
    116  CA         7.4890    9.5180   16.0380 C.3   255  ILE255      0.1692
    117  C          5.9690    9.5380   16.2320 C.2   255  ILE255      0.2593
    118  O          5.2460    8.9410   15.4570 O.2   255  ILE255     -0.2718
    119  CB         8.1660    8.7090   17.1130 C.3   255  ILE255      0.0266
    120  CG1        9.6720    8.6380   16.7980 C.3   255  ILE255      0.0019
    121  CG2        7.6110    7.3290   17.1300 C.3   255  ILE255      0.0020
    122  CD1       10.4370    7.9910   18.0260 C.3   255  ILE255      0.0001
    123  N          5.4960   10.2670   17.2540 N.am  256  GLY256     -0.1942
    124  CA         4.0640   10.3880   17.4860 C.3   256  GLY256      0.2014
    125  C          3.2770   10.9970   16.3450 C.2   256  GLY256      0.2638
    126  O          2.1580   10.5880   16.0500 O.2   256  GLY256     -0.2714
    127  N          3.8490   11.9610   15.6620 N.am  257  ALA257     -0.1977
    128  CA         3.1860   12.5220   14.4910 C.3   257  ALA257      0.1597
    129  C          2.9120   11.4810   13.4060 C.2   257  ALA257      0.2287
    130  O          1.8390   11.4940   12.8030 O.2   257  ALA257     -0.2864
    131  CB         3.9630   13.7010   13.9310 C.3   257  ALA257      0.0319
    132  N          2.7470    8.2010   13.7780 N.3   259  LEU259     -0.1231
    133  CA         1.8140    7.2520   14.3550 C.3   259  LEU259      0.1693
    134  C          0.3640    7.6510   14.0360 C.2   259  LEU259      0.2591
    135  O         -0.5210    6.8480   13.5640 O.2   259  LEU259     -0.2718
    136  CB         2.0730    7.2570   15.8710 C.3   259  LEU259      0.0284
    137  CG         0.9620    6.5750   16.6640 C.3   259  LEU259      0.0019
    138  CD1        1.0040    5.0800   16.3290 C.3   259  LEU259      0.0001
    139  CD2        1.2790    6.8220   18.0680 C.3   259  LEU259      0.0001
    140  N          0.0900    8.9170   14.2810 N.am  260  ILE260     -0.1980
    141  CA        -1.2530    9.4240   14.1030 C.3   260  ILE260      0.1595
    142  C         -1.5550    9.5620   12.6110 C.2   260  ILE260      0.2287
    143  O         -2.6810    9.2340   12.1390 O.2   260  ILE260     -0.2864
    144  CB        -1.3040   10.8130   14.7940 C.3   260  ILE260      0.0276
    145  CG1       -1.1500   10.5590   16.3060 C.3   260  ILE260      0.0022
    146  CG2       -2.5740   11.5030   14.5040 C.3   260  ILE260      0.0022
    147  CD1       -2.0470    9.4920   16.9110 C.3   260  ILE260      0.0001
@<TRIPOS>BOND
     1   143   142    2
     2   142   141    1
     3   130   129    2
     4   129   128    1
     5   135   134    2
     6   132   133    1
     7   131   128    1
     8   134   140   am
     9   134   133    1
    10   141   140    1
    11   141   144    1
    12   133   136    1
    13   128   127    1
    14   146   144    1
    15   144   145    1
    16   118   117    2
    17   127   125   am
    18   136   137    1
    19   116   115    1
    20   116   117    1
    21   116   119    1
    22   126   125    2
    23   117   123   am
    24   145   147    1
    25   138   137    1
    26    10     8   ar
    27    10    11   ar
    28   125   124    1
    29    12    11    1
    30   137   139    1
    31     8     6   ar
    32   113   112    2
    33   120   119    1
    34   120   122    1
    35    11     9   ar
    36   119   121    1
    37   123   124    1
    38   112   111    1
    39     6     5    1
    40     6     7   ar
    41     9     7   ar
    42    37    36    2
    43     5     2    1
    44     4     3    2
    45   111   114    1
    46   111   110    1
    47   105   104    2
    48    41    40    1
    49    41    42    2
    50     3     2    1
    51    46    44    1
    52   110   104   am
    53    40    39    1
    54    40    43    1
    55    36    39   am
    56    36    35    1
    57   104   103    1
    58     2     1    1
    59   102   103    1
    60    85    83    1
    61   103   106    1
    62    38    35    1
    63    43    44    1
    64    35    34    1
    65    84    83    1
    66    44    45    1
    67    77    76    1
    68    76    78    1
    69    76    75    1
    70    97    96    2
    71    74    73    2
    72    83    80    1
    73    93    91    1
    74    96    95    1
    75    91    90    1
    76    73    72    1
    77   106   108    1
    78   106   107    1
    79    80    79    1
    80    80    81    1
    81    92    90    1
    82   109   107    1
    83    75    72    1
    84    90    87    1
    85    72    71    1
    86    95    94    1
    87    95    98    1
    88    29    28    2
    89    81    82    2
    90    87    86    1
    91    87    88    1
    92    98    99    1
    93    33    31    1
    94    21    20    2
    95    28    27    1
    96    88    89    2
    97    27    30    1
    98    27    26    1
    99    69    68    2
   100    30    31    1
   101    31    32    1
   102    20    26   am
   103    20    19    1
   104    99   100    2
   105    99   101   am
   106    64    62    1
   107    70    67    1
   108    68    67    1
   109    57    55    1
   110    19    22    1
   111    19    18    1
   112    61    60    2
   113    53    52    1
   114    53    54    1
   115    67    66    1
   116    22    23    1
   117    52    51    1
   118    55    54    2
   119    55    56    1
   120    62    63    1
   121    62    59    1
   122    65    63    1
   123    24    23    1
   124    25    23    1
   125    60    59    1
   126    50    49    2
   127    58    59    1
   128    16    15    2
   129    49    48    1
   130    51    48    1
   131    47    48    1
   132    15    14    1
   133    17    14    1
   134    14    13    1
