@<TRIPOS>MOLECULE
tmp/1pzpA00.pdb
 120 110 0 0 0
SMALL
GASTEIGER

@<TRIPOS>ATOM
      1  N          1.2350   15.2880   25.6330 N.3   196  LEU196     -0.1245
      2  CA         0.7030   14.3660   24.6220 C.3   196  LEU196      0.1561
      3  C         -0.7430   14.6770   24.2470 C.2   196  LEU196      0.2260
      4  O         -1.1050   14.6920   23.0620 O.2   196  LEU196     -0.2867
      5  CB         0.8440   12.9380   25.1020 C.3   196  LEU196      0.0270
      6  CG         2.2730   12.5290   25.4740 C.3   196  LEU196      0.0019
      7  CD1        2.1710   11.2480   26.3340 C.3   196  LEU196      0.0001
      8  CD2        3.2270   12.3930   24.2520 C.3   196  LEU196      0.0001
      9  N         -0.8780   17.5380   21.8820 N.3   199  ALA199     -0.1231
     10  CA        -0.3760   17.2100   20.5580 C.3   199  ALA199      0.1694
     11  C         -1.3390   16.3450   19.7330 C.2   199  ALA199      0.2591
     12  O         -1.3710   16.4430   18.4650 O.2   199  ALA199     -0.2718
     13  CB         0.9990   16.5460   20.6740 C.3   199  ALA199      0.0304
     14  N         -2.1630   15.5380   20.4220 N.am  200  LEU200     -0.1980
     15  CA        -3.0660   14.6560   19.7150 C.3   200  LEU200      0.1596
     16  C         -4.2050   15.4510   19.1100 C.2   200  LEU200      0.2287
     17  O         -4.4430   16.6240   19.4930 O.2   200  LEU200     -0.2864
     18  CB        -3.6220   13.6700   20.7300 C.3   200  LEU200      0.0297
     19  CG        -2.6380   12.6030   21.2050 C.3   200  LEU200      0.0022
     20  CD1       -3.2290   11.8780   22.3600 C.3   200  LEU200      0.0001
     21  CD2       -2.2930   11.5970   20.0510 C.3   200  LEU200      0.0001
     22  N         -5.9330    9.7740   25.9840 N.3   206  ILE206     -0.1245
     23  CA        -4.5980    9.2730   26.2730 C.3   206  ILE206      0.1561
     24  C         -4.4980    9.0380   27.7630 C.2   206  ILE206      0.2260
     25  O         -4.9100    9.8630   28.5970 O.2   206  ILE206     -0.2867
     26  CB        -3.4890   10.1840   25.7370 C.3   206  ILE206      0.0252
     27  CG1       -2.1170    9.5740   26.1020 C.3   206  ILE206      0.0019
     28  CG2       -3.6640   11.5630   26.2770 C.3   206  ILE206      0.0019
     29  CD1       -1.2090    9.3310   24.9420 C.3   206  ILE206      0.0001
     30  N          8.0510    5.9270   27.5300 N.3   220  ILE220     -0.1245
     31  CA         6.6290    6.1850   27.7600 C.3   220  ILE220      0.1561
     32  C          5.8510    4.9200   27.4430 C.2   220  ILE220      0.2260
     33  O          6.1690    4.2290   26.4570 O.2   220  ILE220     -0.2867
     34  CB         6.1210    7.3430   26.9330 C.3   220  ILE220      0.0252
     35  CG1        4.6800    7.6860   27.4010 C.3   220  ILE220      0.0019
     36  CG2        6.1250    6.9790   25.5440 C.3   220  ILE220      0.0019
     37  CD1        4.2230    9.1080   27.0460 C.3   220  ILE220      0.0001
     38  N          1.6110    3.8990   26.9530 N.3   222  ALA222     -0.1245
     39  CA         0.4150    4.6710   26.7480 C.3   222  ALA222      0.1562
     40  C         -0.6980    3.8020   26.1730 C.2   222  ALA222      0.2260
     41  O         -0.4350    2.8830   25.4060 O.2   222  ALA222     -0.2867
     42  CB         0.6720    5.8300   25.7780 C.3   222  ALA222      0.0290
     43  N         -4.1230    4.8430   23.9540 N.3   224  LEU224     -0.1245
     44  CA        -4.6760    6.0790   23.3580 C.3   224  LEU224      0.1561
     45  C         -5.6460    5.7150   22.2370 C.2   224  LEU224      0.2260
     46  O         -5.5530    4.6060   21.6620 O.2   224  LEU224     -0.2867
     47  CB        -3.5710    7.0010   22.8370 C.3   224  LEU224      0.0270
     48  CG        -2.8690    6.6680   21.5190 C.3   224  LEU224      0.0019
     49  CD1       -1.9890    7.8750   21.0650 C.3   224  LEU224      0.0001
     50  CD2       -2.0190    5.3730   21.5490 C.3   224  LEU224      0.0001
     51  N          0.8960    1.9470   22.9480 N.3   234  VAL234     -0.1245
     52  CA         2.1500    2.3630   22.3580 C.3   234  VAL234      0.1561
     53  C          3.2140    2.4350   23.4620 C.2   234  VAL234      0.2260
     54  O          2.9200    2.9330   24.5690 O.2   234  VAL234     -0.2867
     55  CB         1.9920    3.7670   21.7150 C.3   234  VAL234      0.0252
     56  CG1        3.3500    4.2980   21.3630 C.3   234  VAL234      0.0019
     57  CG2        1.1870    3.6000   20.4560 C.3   234  VAL234      0.0019
     58  N          7.3890    3.2050   24.0120 N.3   236  ILE236     -0.1245
     59  CA         8.6440    3.6820   23.4420 C.3   236  ILE236      0.1561
     60  C          9.6630    3.7500   24.5860 C.2   236  ILE236      0.2260
     61  O          9.3830    4.3740   25.5990 O.2   236  ILE236     -0.2867
     62  CB         8.5160    5.0540   22.7790 C.3   236  ILE236      0.0252
     63  CG1        7.2510    5.1030   21.9300 C.3   236  ILE236      0.0019
     64  CG2        9.7860    5.3250   21.9740 C.3   236  ILE236      0.0019
     65  CD1        6.9260    6.5330   21.4210 C.3   236  ILE236      0.0001
     66  N         10.3500   12.4720   19.3000 N.3   252  ILE252     -0.1231
     67  CA         9.0070   11.9860   19.6250 C.3   252  ILE252      0.1692
     68  C          7.8610   12.6460   18.8530 C.2   252  ILE252      0.2592
     69  O          6.8450   12.0160   18.5640 O.2   252  ILE252     -0.2718
     70  CB         8.7160   12.1340   21.0910 C.3   252  ILE252      0.0266
     71  CG1        8.3310   10.7730   21.6600 C.3   252  ILE252      0.0019
     72  CG2        7.6160   13.1900   21.2580 C.3   252  ILE252      0.0020
     73  CD1        9.4410   10.1920   22.4870 C.3   252  ILE252      0.0001
     74  N          8.0030   13.9250   18.5630 N.am  253  ALA253     -0.1966
     75  CA         7.0450   14.6870   17.7690 C.3   253  ALA253      0.1728
     76  C          6.8930   13.9770   16.4320 C.2   253  ALA253      0.2616
     77  O          5.7670   13.7300   16.0040 O.2   253  ALA253     -0.2715
     78  CB         7.5810   16.1020   17.5530 C.3   253  ALA253      0.0334
     79  N          8.0230   13.5990   15.8420 N.am  254  GLU254     -0.1963
     80  CA         8.0460   13.0320   14.5360 C.3   254  GLU254      0.1733
     81  C          7.4130   11.6230   14.5420 C.2   254  GLU254      0.2616
     82  O          6.6420   11.2660   13.6310 O.2   254  GLU254     -0.2715
     83  CB         9.4930   13.0260   14.0470 C.3   254  GLU254      0.0429
     84  CG         9.9600   14.4170   13.6390 C.3   254  GLU254      0.1163
     85  CD         8.8980   15.1390   12.7980 C.2   254  GLU254      0.3649
     86  OE1        8.7410   14.7750   11.6020 O.co2 254  GLU254     -0.2457
     87  OE2        8.1990   16.0400   13.3250 O.co2 254  GLU254     -0.2457
     88  N          7.7990   10.8210   15.5520 N.am  255  ILE255     -0.1963
     89  CA         7.2120    9.4640   15.7260 C.3   255  ILE255      0.1727
     90  C          5.6970    9.5650   15.9630 C.2   255  ILE255      0.2617
     91  O          4.9020    8.8740   15.3110 O.2   255  ILE255     -0.2715
     92  CB         7.9470    8.6820   16.8830 C.3   255  ILE255      0.0290
     93  CG1        9.4330    8.4890   16.5420 C.3   255  ILE255      0.0022
     94  CG2        7.2160    7.3300   17.1690 C.3   255  ILE255      0.0023
     95  CD1       10.1860    7.9610   17.7710 C.3   255  ILE255      0.0001
     96  N          5.2840   10.4720   16.8630 N.am  256  GLY256     -0.1940
     97  CA         3.8700   10.6170   17.1860 C.3   256  GLY256      0.2014
     98  C          3.0600   11.1410   16.0250 C.2   256  GLY256      0.2638
     99  O          1.9790   10.6240   15.7250 O.2   256  GLY256     -0.2714
    100  N          3.6120   12.1060   15.3050 N.am  257  ALA257     -0.1977
    101  CA         2.9430   12.5900   14.1280 C.3   257  ALA257      0.1597
    102  C          2.6970   11.4630   13.1480 C.2   257  ALA257      0.2287
    103  O          1.6410   11.3840   12.5440 O.2   257  ALA257     -0.2864
    104  CB         3.7060   13.7090   13.4740 C.3   257  ALA257      0.0319
    105  N          2.5580    8.1000   13.8110 N.3   259  LEU259     -0.1231
    106  CA         1.6000    7.2040   14.4250 C.3   259  LEU259      0.1693
    107  C          0.1610    7.6980   14.1520 C.2   259  LEU259      0.2591
    108  O         -0.7260    6.9300   13.7750 O.2   259  LEU259     -0.2718
    109  CB         1.9060    7.1590   15.9320 C.3   259  LEU259      0.0284
    110  CG         0.8180    6.5710   16.7960 C.3   259  LEU259      0.0019
    111  CD1        0.7380    5.0670   16.5580 C.3   259  LEU259      0.0001
    112  CD2        1.0420    6.9490   18.2440 C.3   259  LEU259      0.0001
    113  N         -0.0630    8.9990   14.3270 N.am  260  ILE260     -0.1980
    114  CA        -1.4140    9.5070   14.1180 C.3   260  ILE260      0.1595
    115  C         -1.7480    9.5750   12.6210 C.2   260  ILE260      0.2287
    116  O         -2.8680    9.1860   12.2410 O.2   260  ILE260     -0.2864
    117  CB        -1.4810   10.9450   14.7490 C.3   260  ILE260      0.0276
    118  CG1       -1.3860   10.9240   16.2620 C.3   260  ILE260      0.0022
    119  CG2       -2.7780   11.6570   14.3870 C.3   260  ILE260      0.0022
    120  CD1       -2.0400    9.7970   16.9130 C.3   260  ILE260      0.0001
@<TRIPOS>BOND
     1    86    85   ar
     2   116   115    2
     3   103   102    2
     4   115   114    1
     5    85    87   ar
     6    85    84    1
     7   102   101    1
     8   104   101    1
     9    82    81    2
    10    84    83    1
    11   108   107    2
    12   105   106    1
    13    83    80    1
    14   114   113    1
    15   114   117    1
    16   101   100    1
    17   107   113   am
    18   107   106    1
    19   119   117    1
    20   106   109    1
    21    80    81    1
    22    80    79    1
    23    81    88   am
    24   117   118    1
    25   100    98   am
    26    91    90    2
    27    88    89    1
    28    99    98    2
    29    89    90    1
    30    89    92    1
    31    79    76   am
    32   109   110    1
    33    90    96   am
    34    77    76    2
    35    98    97    1
    36   118   120    1
    37    76    75    1
    38    93    92    1
    39    93    95    1
    40   111   110    1
    41   110   112    1
    42    96    97    1
    43    92    94    1
    44    78    75    1
    45    75    74    1
    46    12    11    2
    47    74    68   am
    48    69    68    2
    49    68    67    1
    50    16    17    2
    51    16    15    1
    52    66    67    1
    53    67    70    1
    54    15    14    1
    55    15    18    1
    56    11    14   am
    57    11    10    1
    58    21    19    1
    59    57    55    1
    60    10    13    1
    61    10     9    1
    62    18    19    1
    63    49    48    1
    64    70    72    1
    65    70    71    1
    66    19    20    1
    67    56    55    1
    68    65    63    1
    69    48    50    1
    70    48    47    1
    71    71    73    1
    72    46    45    2
    73    55    52    1
    74    63    62    1
    75    64    62    1
    76    45    44    1
    77    52    51    1
    78    52    53    1
    79    62    59    1
    80    47    44    1
    81     4     3    2
    82    44    43    1
    83    59    58    1
    84    59    60    1
    85    53    54    2
    86     3     2    1
    87     8     6    1
    88    60    61    2
    89     2     5    1
    90     2     1    1
    91    29    27    1
    92     5     6    1
    93    41    40    2
    94     6     7    1
    95    36    34    1
    96    26    27    1
    97    26    23    1
    98    26    28    1
    99    42    39    1
   100    22    23    1
   101    40    39    1
   102    23    24    1
   103    33    32    2
   104    39    38    1
   105    34    35    1
   106    34    31    1
   107    37    35    1
   108    32    31    1
   109    30    31    1
   110    24    25    2
