@<TRIPOS>MOLECULE
tmp/1pzxB00.pdb
 179 166 0 0 0
SMALL
GASTEIGER

@<TRIPOS>ATOM
      1  N         21.4380   20.3810    6.5280 N.3    30  LEU30      -0.1245
      2  CA        20.7410   19.7680    5.4170 C.3    30  LEU30       0.1561
      3  C         21.8340   19.5050    4.3780 C.2    30  LEU30       0.2260
      4  O         22.7950   20.2770    4.2690 O.2    30  LEU30      -0.2867
      5  CB        19.6810   20.7200    4.8600 C.3    30  LEU30       0.0270
      6  CG        18.4900   21.0000    5.7800 C.3    30  LEU30       0.0019
      7  CD1       17.6120   22.0740    5.1620 C.3    30  LEU30       0.0001
      8  CD2       17.7060   19.7160    6.0040 C.3    30  LEU30       0.0001
      9  N         19.8930   19.0770   -3.3720 N.3    62  THR62      -0.1203
     10  CA        19.8490   18.9400   -1.9170 C.3    62  THR62       0.1994
     11  C         19.2860   17.5940   -1.5040 C.2    62  THR62       0.2618
     12  O         18.6190   16.9160   -2.2820 O.2    62  THR62      -0.2717
     13  CB        18.9680   20.0240   -1.2590 C.3    62  THR62       0.1784
     14  OG1       17.5950   19.8050   -1.6120 O.3    62  THR62      -0.2211
     15  CG2       19.3920   21.4110   -1.7150 C.3    62  THR62       0.0376
     16  N         19.5580   17.2130   -0.2650 N.am   63  ALA63      -0.1965
     17  CA        19.0690   15.9550    0.2650 C.3    63  ALA63       0.1728
     18  C         18.8350   16.1440    1.7500 C.2    63  ALA63       0.2616
     19  O         19.5320   16.9250    2.4010 O.2    63  ALA63      -0.2715
     20  CB        20.0900   14.8520    0.0310 C.3    63  ALA63       0.0334
     21  N         17.8430   15.4510    2.2880 N.am   64  GLN64      -0.1977
     22  CA        17.5790   15.5770    3.7050 C.3    64  GLN64       0.1601
     23  C         18.6470   14.7750    4.4140 C.2    64  GLN64       0.2287
     24  O         19.2660   13.8950    3.8170 O.2    64  GLN64      -0.2864
     25  CB        16.1950   15.0330    4.0580 C.3    64  GLN64       0.0394
     26  CG        15.9860   13.5710    3.7450 C.3    64  GLN64       0.0908
     27  CD        14.7270   13.0360    4.3920 C.2    64  GLN64       0.2608
     28  OE1       14.6910   12.7930    5.5970 O.2    64  GLN64      -0.2717
     29  NE2       13.6800   12.8680    3.5980 N.am   64  GLN64      -0.0878
     30  N         12.3650   22.2070    9.8450 N.3    89  PHE89      -0.1241
     31  CA        12.0200   22.8400    8.5740 C.3    89  PHE89       0.1605
     32  C         10.6560   22.2930    8.1120 C.2    89  PHE89       0.2264
     33  O         10.3360   21.1290    8.3520 O.2    89  PHE89      -0.2867
     34  CB        13.1210   22.4820    7.5700 C.3    89  PHE89       0.0534
     35  CG        13.0170   23.1830    6.2510 C.ar   89  PHE89      -0.0203
     36  CD1       12.9990   24.5720    6.1800 C.ar   89  PHE89      -0.0042
     37  CD2       13.0050   22.4470    5.0670 C.ar   89  PHE89      -0.0042
     38  CE1       12.9750   25.2210    4.9480 C.ar   89  PHE89      -0.0003
     39  CE2       12.9800   23.0790    3.8330 C.ar   89  PHE89      -0.0003
     40  CZ        12.9660   24.4730    3.7680 C.ar   89  PHE89      -0.0000
     41  N          8.2100   21.0640    2.7020 N.3    93  LEU93      -0.1231
     42  CA         9.3410   21.3790    1.8370 C.3    93  LEU93       0.1693
     43  C         10.4600   20.3480    1.9140 C.2    93  LEU93       0.2593
     44  O         11.4100   20.3920    1.1270 O.2    93  LEU93      -0.2718
     45  CB         9.8980   22.7540    2.1850 C.3    93  LEU93       0.0284
     46  CG         8.8890   23.8920    2.2000 C.3    93  LEU93       0.0019
     47  CD1        9.6040   25.1890    2.5590 C.3    93  LEU93       0.0001
     48  CD2        8.2110   23.9950    0.8390 C.3    93  LEU93       0.0001
     49  N         10.3520   19.4260    2.8630 N.am   94  SER94      -0.1938
     50  CA        11.3570   18.3910    3.0140 C.3    94  SER94       0.2055
     51  C         10.8280   17.2320    3.8330 C.2    94  SER94       0.2643
     52  O          9.8500   17.3740    4.5700 O.2    94  SER94      -0.2714
     53  CB        12.6090   18.9620    3.6760 C.3    94  SER94       0.2130
     54  OG        13.5150   17.9280    4.0260 O.3    94  SER94      -0.2179
     55  N         11.4720   16.0790    3.6920 N.am   95  GLY95      -0.1954
     56  CA        11.0530   14.9060    4.4370 C.3    95  GLY95       0.1869
     57  C         11.7970   14.8380    5.7530 C.2    95  GLY95       0.2309
     58  O         11.5950   13.9350    6.5640 O.2    95  GLY95      -0.2863
     59  N         10.2920   28.4320    7.0430 N.3   124  ALA124     -0.1231
     60  CA        11.5260   28.2830    6.2830 C.3   124  ALA124      0.1694
     61  C         12.3830   29.5310    6.4090 C.2   124  ALA124      0.2592
     62  O         11.8600   30.6300    6.6170 O.2   124  ALA124     -0.2718
     63  CB        11.2000   28.0370    4.8160 C.3   124  ALA124      0.0304
     64  N         13.6960   29.3620    6.2640 N.am  125  SER125     -0.1952
     65  CA        14.6240   30.4770    6.3530 C.3   125  SER125      0.1924
     66  C         14.4090   31.1780    7.6950 C.2   125  SER125      0.2314
     67  O         14.1560   30.5100    8.6980 O.2   125  SER125     -0.2863
     68  CB        14.3810   31.4430    5.1910 C.3   125  SER125      0.2116
     69  OG        15.4500   32.3610    5.0380 O.3   125  SER125     -0.2180
     70  N          8.0390   36.2690   -0.3200 N.3   163  PHE163     -0.1241
     71  CA         9.3060   36.3320   -1.0390 C.3   163  PHE163      0.1605
     72  C          9.2120   36.4400   -2.5500 C.2   163  PHE163      0.2264
     73  O          8.1360   36.3140   -3.1400 O.2   163  PHE163     -0.2867
     74  CB        10.1740   35.1220   -0.6760 C.3   163  PHE163      0.0534
     75  CG         9.6130   33.7940   -1.1260 C.ar  163  PHE163     -0.0203
     76  CD1       10.1380   33.1460   -2.2390 C.ar  163  PHE163     -0.0042
     77  CD2        8.6020   33.1610   -0.3990 C.ar  163  PHE163     -0.0042
     78  CE1        9.6720   31.8820   -2.6180 C.ar  163  PHE163     -0.0003
     79  CE2        8.1310   31.8990   -0.7700 C.ar  163  PHE163     -0.0003
     80  CZ         8.6700   31.2590   -1.8810 C.ar  163  PHE163     -0.0000
     81  N         13.1860   26.8400   -8.4610 N.3   171  LEU171     -0.1245
     82  CA        12.1820   26.2340   -7.5890 C.3   171  LEU171      0.1561
     83  C         11.4610   25.0740   -8.2590 C.2   171  LEU171      0.2260
     84  O         11.3280   23.9990   -7.6820 O.2   171  LEU171     -0.2867
     85  CB        11.1550   27.2780   -7.1560 C.3   171  LEU171      0.0270
     86  CG        11.5720   28.1660   -5.9890 C.3   171  LEU171      0.0019
     87  CD1       10.5490   29.2680   -5.7860 C.3   171  LEU171      0.0001
     88  CD2       11.7090   27.3080   -4.7450 C.3   171  LEU171      0.0001
     89  N          9.8750   21.5550   -5.1040 N.3   176  ARG176     -0.1245
     90  CA         9.2000   21.8470   -3.8430 C.3   176  ARG176      0.1563
     91  C          8.0800   22.8520   -4.0760 C.2   176  ARG176      0.2260
     92  O          7.6170   23.5090   -3.1470 O.2   176  ARG176     -0.2867
     93  CB        10.1920   22.3920   -2.8110 C.3   176  ARG176      0.0307
     94  CG        11.4830   21.5970   -2.7120 C.3   176  ARG176      0.0489
     95  CD        11.2920   20.2070   -2.1460 C.3   176  ARG176      0.2205
     96  NE        12.4670   19.3910   -2.4290 N.pl3 176  ARG176     -0.0865
     97  CZ        13.0150   18.5270   -1.5800 C.cat 176  ARG176      0.5346
     98  NH1       12.4960   18.3580   -0.3740 N.pl3 176  ARG176      0.1354
     99  NH2       14.0910   17.8320   -1.9350 N.pl3 176  ARG176      0.1354
    100  N          4.3870   31.7430    1.7960 N.3   196  VAL196     -0.1245
    101  CA         4.2340   30.4060    2.3270 C.3   196  VAL196      0.1561
    102  C          2.8680   30.3230    2.9680 C.2   196  VAL196      0.2260
    103  O          2.4260   31.2440    3.6620 O.2   196  VAL196     -0.2867
    104  CB         5.3080   30.0660    3.3730 C.3   196  VAL196      0.0252
    105  CG1        4.9740   28.7380    4.0350 C.3   196  VAL196      0.0019
    106  CG2        6.6770   29.9840    2.7080 C.3   196  VAL196      0.0019
    107  N          4.8160   26.3380   -0.5810 N.3   201  LEU201     -0.1245
    108  CA         5.0950   27.4990   -1.4200 C.3   201  LEU201      0.1561
    109  C          3.9240   27.7570   -2.3590 C.2   201  LEU201      0.2260
    110  O          3.5330   26.8750   -3.1250 O.2   201  LEU201     -0.2867
    111  CB         6.3590   27.2750   -2.2510 C.3   201  LEU201      0.0270
    112  CG         7.6030   26.7850   -1.5150 C.3   201  LEU201      0.0019
    113  CD1        8.7800   26.8630   -2.4630 C.3   201  LEU201      0.0001
    114  CD2        7.8570   27.6290   -0.2740 C.3   201  LEU201      0.0001
    115  N         15.8280   37.8260    4.6140 N.3   236  SER236     -0.1217
    116  CA        16.9220   36.9990    4.1230 C.3   236  SER236      0.1889
    117  C         17.0690   37.2010    2.6120 C.2   236  SER236      0.2288
    118  O         16.1340   37.6380    1.9380 O.2   236  SER236     -0.2866
    119  CB        16.7140   35.5120    4.4750 C.3   236  SER236      0.2089
    120  OG        15.4520   35.0160    4.0680 O.3   236  SER236     -0.2183
    121  N         20.4020   33.5520    2.7690 N.3   265  ILE265     -0.1245
    122  CA        19.6660   32.3130    2.5950 C.3   265  ILE265      0.1561
    123  C         20.7080   31.1950    2.5070 C.2   265  ILE265      0.2260
    124  O         21.6930   31.3140    1.7860 O.2   265  ILE265     -0.2867
    125  CB        18.7820   32.4020    1.3210 C.3   265  ILE265      0.0252
    126  CG1       17.6590   33.4140    1.5750 C.3   265  ILE265      0.0019
    127  CG2       18.2160   31.0360    0.9460 C.3   265  ILE265      0.0019
    128  CD1       16.9240   33.8530    0.3400 C.3   265  ILE265      0.0001
    129  N         21.2320   24.9320    1.2510 N.3   268  ALA268     -0.1231
    130  CA        20.1410   24.0100    0.9530 C.3   268  ALA268      0.1694
    131  C         18.9550   24.7480    0.3290 C.2   268  ALA268      0.2591
    132  O         18.4310   24.3320   -0.7060 O.2   268  ALA268     -0.2718
    133  CB        19.7080   23.2890    2.2230 C.3   268  ALA268      0.0304
    134  N         18.5360   25.8460    0.9540 N.am  269  ILE269     -0.1980
    135  CA        17.4180   26.6230    0.4380 C.3   269  ILE269      0.1595
    136  C         17.8240   27.3900   -0.8150 C.2   269  ILE269      0.2287
    137  O         17.0460   27.5030   -1.7570 O.2   269  ILE269     -0.2864
    138  CB        16.8810   27.6170    1.4970 C.3   269  ILE269      0.0276
    139  CG1       16.2490   26.8460    2.6560 C.3   269  ILE269      0.0022
    140  CG2       15.8270   28.5340    0.8840 C.3   269  ILE269      0.0022
    141  CD1       15.6160   27.7450    3.6980 C.3   269  ILE269      0.0001
    142  N         17.3590   25.6860   -4.2480 N.3   272  HIS272     -0.1226
    143  CA        16.0060   25.7120   -4.8020 C.3   272  HIS272      0.1752
    144  C         15.5140   27.1070   -5.1870 C.2   272  HIS272      0.2595
    145  O         14.9960   27.2990   -6.2820 O.2   272  HIS272     -0.2718
    146  CB        15.0150   25.1090   -3.8120 C.3   272  HIS272      0.0759
    147  CG        15.2070   23.6480   -3.5790 C.ar  272  HIS272      0.0818
    148  ND1       16.3280   23.1340   -2.9640 N.ar  272  HIS272     -0.2268
    149  CD2       14.4100   22.5910   -3.8580 C.ar  272  HIS272      0.1154
    150  CE1       16.2110   21.8210   -2.8710 C.ar  272  HIS272      0.1986
    151  NE2       15.0550   21.4660   -3.4040 N.ar  272  HIS272     -0.2212
    152  N         15.6580   28.0730   -4.2840 N.am  273  ALA273     -0.1980
    153  CA        15.2160   29.4430   -4.5520 C.3   273  ALA273      0.1597
    154  C         16.0860   30.0950   -5.6170 C.2   273  ALA273      0.2287
    155  O         15.6020   30.8530   -6.4600 O.2   273  ALA273     -0.2864
    156  CB        15.2570   30.2700   -3.2710 C.3   273  ALA273      0.0319
    157  N         17.0450   35.7040   -4.7040 N.3   277  THR277     -0.1218
    158  CA        15.8560   35.5900   -3.8650 C.3   277  THR277      0.1862
    159  C         15.8850   36.6080   -2.7150 C.2   277  THR277      0.2287
    160  O         16.9280   36.8250   -2.0990 O.2   277  THR277     -0.2866
    161  CB        15.7620   34.1760   -3.2510 C.3   277  THR277      0.1770
    162  OG1       15.7140   33.1990   -4.3010 O.3   277  THR277     -0.2211
    163  CG2       14.5180   34.0450   -2.3730 C.3   277  THR277      0.0375
    164  N         13.5360   37.5970    0.7750 N.3   279  ALA279     -0.1245
    165  CA        12.4160   37.1790    1.6170 C.3   279  ALA279      0.1562
    166  C         12.1680   38.0170    2.8700 C.2   279  ALA279      0.2260
    167  O         13.0920   38.4680    3.5480 O.2   279  ALA279     -0.2867
    168  CB        12.5850   35.7510    1.9970 C.3   279  ALA279      0.0290
    169  N          9.8730   38.2680    6.5890 N.3   281  PHE281     -0.1241
    170  CA         9.2000   37.4750    7.6150 C.3   281  PHE281      0.1605
    171  C          8.6450   38.3090    8.7650 C.2   281  PHE281      0.2264
    172  O          9.3350   39.1610    9.3130 O.2   281  PHE281     -0.2867
    173  CB        10.1770   36.4500    8.1710 C.3   281  PHE281      0.0534
    174  CG        10.9290   35.7040    7.1140 C.ar  281  PHE281     -0.0203
    175  CD1       10.3220   34.6780    6.4000 C.ar  281  PHE281     -0.0042
    176  CD2       12.2460   36.0440    6.8160 C.ar  281  PHE281     -0.0042
    177  CE1       11.0150   33.9980    5.4030 C.ar  281  PHE281     -0.0003
    178  CE2       12.9450   35.3740    5.8230 C.ar  281  PHE281     -0.0003
    179  CZ        12.3300   34.3480    5.1140 C.ar  281  PHE281     -0.0000
@<TRIPOS>BOND
     1    81    82    1
     2    83    84    2
     3    83    82    1
     4    82    85    1
     5    85    86    1
     6   155   154    2
     7   145   144    2
     8    86    87    1
     9    86    88    1
    10   154   153    1
    11   144   143    1
    12   144   152   am
    13    89    90    1
    14   143   142    1
    15   143   146    1
    16   157   158    1
    17   153   152    1
    18   153   156    1
    19   162   161    1
    20    91    90    1
    21    91    92    2
    22   158   161    1
    23   158   159    1
    24   149   147   ar
    25   149   151   ar
    26    90    93    1
    27   146   147    1
    28   147   148   ar
    29   151   150   ar
    30     9    10    1
    31   161   163    1
    32    73    72    2
    33   110   109    2
    34   148   150   ar
    35    93    94    1
    36   159   160    2
    37    94    95    1
    38    78    76   ar
    39    78    80   ar
    40    72    71    1
    41   113   112    1
    42    96    95    1
    43    96    97    2
    44   109   108    1
    45    12    11    2
    46   111   112    1
    47   111   108    1
    48    76    75   ar
    49    99    97    1
    50    10    11    1
    51    10    13    1
    52    80    79   ar
    53   137   136    2
    54    15    13    1
    55    14    13    1
    56    97    98    1
    57   112   114    1
    58    11    16   am
    59   108   107    1
    60    75    74    1
    61    75    77   ar
    62    71    74    1
    63    71    70    1
    64   136   135    1
    65    79    77   ar
    66   132   131    2
    67    16    17    1
    68    20    17    1
    69    17    18    1
    70   131   130    1
    71   131   134   am
    72   128   126    1
    73   135   134    1
    74   135   138    1
    75   164   165    1
    76    48    46    1
    77   140   138    1
    78   127   125    1
    79   130   129    1
    80   130   133    1
    81    44    43    2
    82   125   126    1
    83   125   122    1
    84   138   139    1
    85   165   168    1
    86   165   166    1
    87    18    21   am
    88    18    19    2
    89   124   123    2
    90   100   101    1
    91    42    43    1
    92    42    45    1
    93    42    41    1
    94    43    49   am
    95   118   117    2
    96    45    46    1
    97    46    47    1
    98    21    22    1
    99   101   102    1
   100   101   104    1
   101   123   122    1
   102   122   121    1
   103   117   116    1
   104   139   141    1
   105   106   104    1
   106    49    50    1
   107   166   167    2
   108   102   103    2
   109    50    53    1
   110    50    51    1
   111   104   105    1
   112    29    27   am
   113    53    54    1
   114    55    51   am
   115    55    56    1
   116    22    25    1
   117    22    23    1
   118    26    25    1
   119    26    27    1
   120    40    39   ar
   121    40    38   ar
   122    24    23    2
   123    51    52    2
   124    39    37   ar
   125   120   119    1
   126   116   119    1
   127   116   115    1
   128     4     3    2
   129     3     2    1
   130    27    28    2
   131    56    57    1
   132    63    60    1
   133     5     2    1
   134     5     6    1
   135    38    36   ar
   136    69    68    1
   137    37    35   ar
   138   179   177   ar
   139   179   178   ar
   140     7     6    1
   141    68    65    1
   142   177   175   ar
   143     2     1    1
   144    57    58    2
   145     6     8    1
   146   178   176   ar
   147    36    35   ar
   148    35    34    1
   149    64    65    1
   150    64    61   am
   151    60    61    1
   152    60    59    1
   153    65    66    1
   154   175   174   ar
   155    61    62    2
   156   169   170    1
   157   176   174   ar
   158   174   173    1
   159    34    31    1
   160   170   173    1
   161   170   171    1
   162    66    67    2
   163    32    33    2
   164    32    31    1
   165    31    30    1
   166   171   172    2
