@<TRIPOS>MOLECULE
tmp/1q0bB00.pdb
 137 132 0 0 0
SMALL
GASTEIGER

@<TRIPOS>ATOM
      1  N         41.0180   -3.9740   56.1310 N.3     9  ARG9       -0.1231
      2  CA        42.0230   -3.4520   55.2220 C.3     9  ARG9        0.1694
      3  C         43.3170   -3.2270   55.9920 C.2     9  ARG9        0.2592
      4  O         43.3300   -2.5500   57.0190 O.2     9  ARG9       -0.2718
      5  CB        41.5780   -2.1270   54.5880 C.3     9  ARG9        0.0321
      6  CG        42.5150   -1.6830   53.4670 C.3     9  ARG9        0.0489
      7  CD        42.1910   -0.2960   52.9220 C.3     9  ARG9        0.2205
      8  NE        42.9200   -0.0400   51.6790 N.pl3   9  ARG9       -0.0865
      9  CZ        42.8530    1.0920   50.9810 C.cat   9  ARG9        0.5346
     10  NH1       42.0970    2.0930   51.4020 N.pl3   9  ARG9        0.1354
     11  NH2       43.5170    1.2100   49.8340 N.pl3   9  ARG9        0.1354
     12  N         44.3990   -3.8100   55.4920 N.am   10  CYS10      -0.1956
     13  CA        45.7090   -3.6710   56.1110 C.3    10  CYS10       0.1843
     14  C         46.5430   -2.7190   55.2710 C.2    10  CYS10       0.2625
     15  O         46.5610   -2.8250   54.0440 O.2    10  CYS10      -0.2714
     16  CB        46.4040   -5.0310   56.1850 C.3    10  CYS10       0.0997
     17  SG        48.0120   -4.9820   56.9940 S.3    10  CYS10      -0.0797
     18  N         47.2300   -1.7870   55.9220 N.am   11  ARG11      -0.1964
     19  CA        48.0600   -0.8390   55.1920 C.3    11  ARG11       0.1714
     20  C         49.4490   -1.4230   54.9610 C.2    11  ARG11       0.2458
     21  O         49.8650   -2.3570   55.6470 O.2    11  ARG11      -0.2730
     22  CB        48.2030    0.4750   55.9660 C.3    11  ARG11       0.0347
     23  CG        49.0650    0.3710   57.2200 C.3    11  ARG11       0.0492
     24  CD        49.4430    1.7520   57.7410 C.3    11  ARG11       0.2205
     25  NE        50.1800    1.6870   58.9990 N.pl3  11  ARG11      -0.0865
     26  CZ        51.4350    1.2660   59.1250 C.cat  11  ARG11       0.5346
     27  NH1       52.1240    0.8660   58.0640 N.pl3  11  ARG11       0.1354
     28  NH2       52.0030    1.2420   60.3230 N.pl3  11  ARG11       0.1354
     29  N         50.1810   -0.8840   53.9780 N.am   12  PRO12      -0.2727
     30  CA        51.5290   -1.3750   53.6890 C.3    12  PRO12       0.1402
     31  C         52.5250   -0.6780   54.6110 C.2    12  PRO12       0.2269
     32  O         52.1740    0.2990   55.2780 O.2    12  PRO12      -0.2865
     33  CB        51.7220   -0.9870   52.2300 C.3    12  PRO12       0.0296
     34  CG        51.0110    0.3250   52.1560 C.3    12  PRO12       0.0237
     35  CD        49.7330    0.0670   52.9440 C.3    12  PRO12       0.0939
     36  N         55.6560    1.6880   55.7720 N.3    14  ASN14      -0.1240
     37  CA        56.1010    3.0030   55.3240 C.3    14  ASN14       0.1653
     38  C         57.6240    3.0020   55.2060 C.2    14  ASN14       0.2266
     39  O         58.2780    2.0480   55.6290 O.2    14  ASN14      -0.2867
     40  CB        55.6300    4.0840   56.3020 C.3    14  ASN14       0.1155
     41  CG        55.9540    3.7530   57.7470 C.2    14  ASN14       0.2627
     42  OD1       55.2460    4.1740   58.6610 O.2    14  ASN14      -0.2716
     43  ND2       57.0300    3.0070   57.9610 N.am   14  ASN14      -0.0877
     44  N         47.6240   -5.2540   52.0040 N.3    59  ALA59      -0.1245
     45  CA        48.3580   -4.0170   51.7680 C.3    59  ALA59       0.1562
     46  C         48.5130   -3.6340   50.2970 C.2    59  ALA59       0.2260
     47  O         48.8300   -2.4870   49.9880 O.2    59  ALA59      -0.2867
     48  CB        49.7310   -4.1000   52.4340 C.3    59  ALA59       0.0290
     49  N         46.0570   -3.7440   48.0630 N.3    61  THR61      -0.1218
     50  CA        44.7950   -3.1860   47.5930 C.3    61  THR61       0.1862
     51  C         44.8280   -1.6950   47.2750 C.2    61  THR61       0.2287
     52  O         45.2040   -0.8730   48.1150 O.2    61  THR61      -0.2866
     53  CB        43.6720   -3.4300   48.6220 C.3    61  THR61       0.1770
     54  OG1       43.6460   -4.8170   48.9760 O.3    61  THR61      -0.2211
     55  CG2       42.3160   -3.0410   48.0380 C.3    61  THR61       0.0375
     56  N         43.0850    1.7870   64.8650 N.3    91  GLN91      -0.1231
     57  CA        43.9690    2.6830   65.6010 C.3    91  GLN91       0.1698
     58  C         44.5440    3.7580   64.7000 C.2    91  GLN91       0.2593
     59  O         44.6340    3.6020   63.4780 O.2    91  GLN91      -0.2718
     60  CB        45.1190    1.9170   66.2690 C.3    91  GLN91       0.0381
     61  CG        46.0830    1.2780   65.3070 C.3    91  GLN91       0.0905
     62  CD        47.3290    0.7230   65.9890 C.2    91  GLN91       0.2608
     63  OE1       47.9330   -0.2300   65.5040 O.2    91  GLN91      -0.2717
     64  NE2       47.7230    1.3290   67.1070 N.am   91  GLN91      -0.0878
     65  N         44.9240    4.8660   65.3200 N.am   92  THR92      -0.1939
     66  CA        45.5180    5.9710   64.6010 C.3    92  THR92       0.2028
     67  C         46.7230    5.4700   63.8120 C.2    92  THR92       0.2643
     68  O         47.5370    4.7000   64.3220 O.2    92  THR92      -0.2714
     69  CB        45.9580    7.0650   65.5860 C.3    92  THR92       0.1808
     70  OG1       44.7950    7.6260   66.2050 O.3    92  THR92      -0.2208
     71  CG2       46.7360    8.1620   64.8650 C.3    92  THR92       0.0379
     72  N         46.8100    5.8950   62.5570 N.am   93  GLY93      -0.1939
     73  CA        47.9120    5.5010   61.7030 C.3    93  GLY93       0.2014
     74  C         47.6840    4.2600   60.8540 C.2    93  GLY93       0.2640
     75  O         48.6060    3.8110   60.1690 O.2    93  GLY93      -0.2714
     76  N         46.4770    3.7000   60.8750 N.am   94  THR94      -0.1936
     77  CA        46.2170    2.4910   60.0930 C.3    94  THR94       0.2028
     78  C         45.5480    2.7140   58.7460 C.2    94  THR94       0.2643
     79  O         45.4290    1.7790   57.9510 O.2    94  THR94      -0.2714
     80  CB        45.3910    1.4510   60.8950 C.3    94  THR94       0.1808
     81  OG1       44.1640    2.0380   61.3530 O.3    94  THR94      -0.2208
     82  CG2       46.1950    0.9570   62.0870 C.3    94  THR94       0.0379
     83  N         45.1020    3.9390   58.4890 N.am   95  GLY95      -0.1939
     84  CA        44.4840    4.2310   57.2080 C.3    95  GLY95       0.2014
     85  C         43.0090    4.5830   57.1590 C.2    95  GLY95       0.2639
     86  O         42.3880    4.4640   56.0990 O.2    95  GLY95      -0.2714
     87  N         42.4290    5.0140   58.2760 N.am   96  LYS96      -0.1963
     88  CA        41.0180    5.3850   58.2650 C.3    96  LYS96       0.1728
     89  C         40.7790    6.5560   57.3120 C.2    96  LYS96       0.2617
     90  O         39.8940    6.5120   56.4540 O.2    96  LYS96      -0.2715
     91  CB        40.5500    5.7650   59.6710 C.3    96  LYS96       0.0311
     92  CG        40.5320    4.5960   60.6580 C.3    96  LYS96       0.0038
     93  CD        39.9480    5.0180   62.0070 C.3    96  LYS96       0.0206
     94  CE        40.7660    6.1480   62.6270 C.3    96  LYS96       0.1093
     95  NZ        42.1640    5.7280   62.9480 N.3    96  LYS96      -0.1314
     96  N         41.5740    7.6070   57.4650 N.am   97  THR97      -0.1937
     97  CA        41.4360    8.7810   56.6180 C.3    97  THR97       0.2028
     98  C         41.8540    8.5030   55.1830 C.2    97  THR97       0.2642
     99  O         41.2520    9.0190   54.2410 O.2    97  THR97      -0.2714
    100  CB        42.2480    9.9460   57.1970 C.3    97  THR97       0.1808
    101  OG1       41.6780   10.3020   58.4610 O.3    97  THR97      -0.2208
    102  CG2       42.1930   11.1600   56.2800 C.3    97  THR97       0.0379
    103  N         42.8810    7.6800   55.0120 N.am   98  PHE98      -0.1959
    104  CA        43.3340    7.3370   53.6670 C.3    98  PHE98       0.1771
    105  C         42.2040    6.6190   52.9270 C.2    98  PHE98       0.2620
    106  O         41.9510    6.8780   51.7480 O.2    98  PHE98      -0.2715
    107  CB        44.5550    6.4200   53.7270 C.3    98  PHE98       0.0574
    108  CG        45.1150    6.0800   52.3740 C.ar   98  PHE98      -0.0200
    109  CD1       45.9640    6.9630   51.7190 C.ar   98  PHE98      -0.0042
    110  CD2       44.7500    4.8990   51.7320 C.ar   98  PHE98      -0.0042
    111  CE1       46.4460    6.6800   50.4410 C.ar   98  PHE98      -0.0003
    112  CE2       45.2260    4.6040   50.4490 C.ar   98  PHE98      -0.0003
    113  CZ        46.0760    5.5000   49.8070 C.ar   98  PHE98      -0.0000
    114  N         41.5280    5.7090   53.6250 N.am   99  THR99      -0.1951
    115  CA        40.4320    4.9550   53.0250 C.3    99  THR99       0.1897
    116  C         39.2050    5.8200   52.7430 C.2    99  THR99       0.2313
    117  O         38.6530    5.8000   51.6380 O.2    99  THR99      -0.2863
    118  CB        40.0140    3.7740   53.9390 C.3    99  THR99       0.1794
    119  OG1       41.1080    2.8570   54.0520 O.3    99  THR99      -0.2208
    120  CG2       38.7950    3.0430   53.3730 C.3    99  THR99       0.0378
    121  N         44.2420   10.7630   49.4760 N.3   103  GLU103     -0.1245
    122  CA        45.2180   11.8430   49.4430 C.3   103  GLU103      0.1567
    123  C         45.4800   12.1870   47.9840 C.2   103  GLU103      0.2260
    124  O         44.9270   11.5540   47.0830 O.2   103  GLU103     -0.2867
    125  CB        46.5320   11.3820   50.0750 C.3   103  GLU103      0.0388
    126  CG        46.4210   10.8980   51.5110 C.3   103  GLU103      0.1160
    127  CD        47.6870   10.2100   51.9780 C.2   103  GLU103      0.3649
    128  OE1       47.7420    9.7950   53.1550 O.co2 103  GLU103     -0.2457
    129  OE2       48.6290   10.0800   51.1620 O.co2 103  GLU103     -0.2457
    130  N         44.9870    7.8650   44.2710 N.3   117  LEU117     -0.1245
    131  CA        44.9880    7.8860   45.7290 C.3   117  LEU117      0.1561
    132  C         43.7000    8.4550   46.3260 C.2   117  LEU117      0.2260
    133  O         43.5400    8.4890   47.5510 O.2   117  LEU117     -0.2867
    134  CB        46.2050    8.6660   46.2490 C.3   117  LEU117      0.0270
    135  CG        47.5750    8.0650   45.9110 C.3   117  LEU117      0.0019
    136  CD1       48.6800    8.8610   46.6080 C.3   117  LEU117      0.0001
    137  CD2       47.6200    6.6010   46.3540 C.3   117  LEU117      0.0001
@<TRIPOS>BOND
     1   130   131    1
     2   131   134    1
     3   131   132    1
     4   135   134    1
     5   135   137    1
     6   135   136    1
     7   132   133    2
     8   124   123    2
     9    51    50    1
    10    51    52    2
    11    50    49    1
    12    50    53    1
    13   123   122    1
    14    55    53    1
    15    53    54    1
    16   122   121    1
    17   122   125    1
    18   113   111   ar
    19   113   112   ar
    20    11     9    1
    21    47    46    2
    22   125   126    1
    23    46    45    1
    24   111   109   ar
    25   112   110   ar
    26     9    10    1
    27     9     8    2
    28   129   127   ar
    29   126   127    1
    30   117   116    2
    31     8     7    1
    32   109   108   ar
    33   110   108   ar
    34   106   105    2
    35    45    44    1
    36    45    48    1
    37   127   128   ar
    38    34    33    1
    39    34    35    1
    40    33    30    1
    41   108   107    1
    42   116   115    1
    43     7     6    1
    44   105   114   am
    45   105   104    1
    46    35    29    1
    47   115   114    1
    48   115   118    1
    49   120   118    1
    50     6     5    1
    51   104   107    1
    52   104   103    1
    53    30    29    1
    54    30    31    1
    55   118   119    1
    56    29    20   am
    57    15    14    2
    58    99    98    2
    59     5     2    1
    60    31    32    2
    61    20    19    1
    62    20    21    2
    63   103    98   am
    64    98    97    1
    65    19    18    1
    66    19    22    1
    67    38    37    1
    68    38    39    2
    69     2     3    1
    70     2     1    1
    71    14    18   am
    72    14    13    1
    73    37    36    1
    74    37    40    1
    75    12     3   am
    76    12    13    1
    77    22    23    1
    78     3     4    2
    79    86    85    2
    80    13    16    1
    81    16    17    1
    82   102   100    1
    83    40    41    1
    84    90    89    2
    85    97   100    1
    86    97    96    1
    87    85    84    1
    88    85    87   am
    89   100   101    1
    90    84    83    1
    91    23    24    1
    92    89    96   am
    93    89    88    1
    94    24    25    1
    95    41    43   am
    96    41    42    2
    97    79    78    2
    98    27    26    1
    99    88    87    1
   100    88    91    1
   101    83    78   am
   102    78    77    1
   103    25    26    2
   104    26    28    1
   105    91    92    1
   106    77    76    1
   107    77    80    1
   108    75    74    2
   109    92    93    1
   110    74    76   am
   111    74    73    1
   112    80    81    1
   113    80    82    1
   114    73    72    1
   115    93    94    1
   116    72    67   am
   117    94    95    1
   118    59    58    2
   119    67    68    2
   120    67    66    1
   121    66    65    1
   122    66    69    1
   123    58    65   am
   124    58    57    1
   125    56    57    1
   126    71    69    1
   127    61    62    1
   128    61    60    1
   129    63    62    2
   130    69    70    1
   131    57    60    1
   132    62    64   am
