@<TRIPOS>MOLECULE
tmp/1q0bB01.pdb
 120 116 0 0 0
SMALL
GASTEIGER

@<TRIPOS>ATOM
      1  N         38.9150    9.3180   52.8220 N.3   101  GLU101     -0.1231
      2  CA        39.1690   10.5410   52.0700 C.3   101  GLU101      0.1699
      3  C         40.1900   10.3800   50.9600 C.2   101  GLU101      0.2593
      4  O         40.0000   10.8780   49.8500 O.2   101  GLU101     -0.2718
      5  CB        39.6590   11.6470   53.0090 C.3   101  GLU101      0.0402
      6  CG        38.6540   12.0690   54.0610 C.3   101  GLU101      0.1161
      7  CD        39.1630   13.2120   54.9190 C.2   101  GLU101      0.3649
      8  OE1       40.2430   13.7640   54.6080 O.co2 101  GLU101     -0.2457
      9  OE2       38.4750   13.5630   55.8990 O.co2 101  GLU101     -0.2457
     10  N         41.2770    9.6860   51.2690 N.am  102  GLY102     -0.1942
     11  CA        42.3350    9.5180   50.2940 C.3   102  GLY102      0.2014
     12  C         43.2680   10.7160   50.3750 C.2   102  GLY102      0.2639
     13  O         43.1030   11.5920   51.2290 O.2   102  GLY102     -0.2714
     14  N         44.2420   10.7630   49.4760 N.am  103  GLU103     -0.1963
     15  CA        45.2180   11.8430   49.4430 C.3   103  GLU103      0.1733
     16  C         45.4800   12.1870   47.9840 C.2   103  GLU103      0.2616
     17  O         44.9270   11.5540   47.0830 O.2   103  GLU103     -0.2715
     18  CB        46.5320   11.3820   50.0750 C.3   103  GLU103      0.0429
     19  CG        46.4210   10.8980   51.5110 C.3   103  GLU103      0.1163
     20  CD        47.6870   10.2100   51.9780 C.2   103  GLU103      0.3649
     21  OE1       47.7420    9.7950   53.1550 O.co2 103  GLU103     -0.2457
     22  OE2       48.6290   10.0800   51.1620 O.co2 103  GLU103     -0.2457
     23  N         46.3230   13.1840   47.7530 N.am  104  ARG104     -0.1977
     24  CA        46.6620   13.5550   46.3840 C.3   104  ARG104      0.1597
     25  C         47.9830   12.8910   46.0090 C.2   104  ARG104      0.2287
     26  O         48.8910   12.7820   46.8430 O.2   104  ARG104     -0.2864
     27  CB        46.8110   15.0780   46.2430 C.3   104  ARG104      0.0334
     28  CG        45.5550   15.9000   46.5610 C.3   104  ARG104      0.0492
     29  CD        44.3370   15.3550   45.8360 C.3   104  ARG104      0.2205
     30  NE        44.6120   15.1040   44.4270 N.pl3 104  ARG104     -0.0865
     31  CZ        44.5510   16.0260   43.4730 C.cat 104  ARG104      0.5346
     32  NH1       44.2120   17.2720   43.7700 N.pl3 104  ARG104      0.1354
     33  NH2       44.8450   15.6990   42.2220 N.pl3 104  ARG104      0.1354
     34  N         42.1060   15.8330   40.3230 N.3   112  TRP112     -0.1241
     35  CA        41.4710   15.1220   41.4270 C.3   112  TRP112      0.1605
     36  C         40.5980   13.9360   41.0180 C.2   112  TRP112      0.2264
     37  O         40.6030   12.9020   41.6870 O.2   112  TRP112     -0.2867
     38  CB        40.6430   16.0850   42.2880 C.3   112  TRP112      0.0550
     39  CG        39.3510   16.5170   41.6790 C.ar  112  TRP112      0.0003
     40  CD1       39.1420   17.5960   40.8600 C.ar  112  TRP112      0.0946
     41  CD2       38.0780   15.8860   41.8430 C.ar  112  TRP112      0.0152
     42  NE1       37.8160   17.6730   40.5120 N.ar  112  TRP112     -0.2442
     43  CE2       37.1400   16.6370   41.1000 C.ar  112  TRP112      0.0810
     44  CE3       37.6370   14.7550   42.5450 C.ar  112  TRP112      0.0012
     45  CZ2       35.7840   16.2940   41.0410 C.ar  112  TRP112      0.0191
     46  CZ3       36.2870   14.4140   42.4850 C.ar  112  TRP112      0.0001
     47  CH2       35.3790   15.1830   41.7390 C.ar  112  TRP112      0.0015
     48  N         42.9100   10.9020   40.1570 N.3   115  ASP115     -0.1239
     49  CA        43.9310   10.5310   41.1320 C.3   115  ASP115      0.1674
     50  C         43.7080    9.1520   41.7500 C.2   115  ASP115      0.2266
     51  O         42.6980    8.9150   42.4210 O.2   115  ASP115     -0.2867
     52  CB        43.9930   11.5770   42.2470 C.3   115  ASP115      0.1410
     53  CG        45.3360   11.5990   42.9420 C.2   115  ASP115      0.3668
     54  OD1       45.8410   10.5080   43.2950 O.co2 115  ASP115     -0.2456
     55  OD2       45.8840   12.7080   43.1380 O.co2 115  ASP115     -0.2456
     56  N         42.7810    8.8960   45.4700 N.3   118  ALA118     -0.1245
     57  CA        41.5090    9.4340   45.9520 C.3   118  ALA118      0.1562
     58  C         40.7820    8.3360   46.7280 C.2   118  ALA118      0.2260
     59  O         40.8250    7.1620   46.3440 O.2   118  ALA118     -0.2867
     60  CB        40.6470    9.9040   44.7830 C.3   118  ALA118      0.0290
     61  N         35.0880    9.1730   49.6930 N.3   121  ILE121     -0.1231
     62  CA        34.2790   10.3820   49.5430 C.3   121  ILE121      0.1678
     63  C         34.3500   11.0280   48.1490 C.2   121  ILE121      0.2434
     64  O         33.3240   11.2020   47.4890 O.2   121  ILE121     -0.2733
     65  CB        34.6450   11.4420   50.6150 C.3   121  ILE121      0.0265
     66  CG1       34.2930   10.9070   52.0090 C.3   121  ILE121      0.0019
     67  CG2       33.8670   12.7380   50.3630 C.3   121  ILE121      0.0020
     68  CD1       34.7700   11.8140   53.1740 C.3   121  ILE121      0.0001
     69  N         35.5520   11.3820   47.6760 N.am  122  PRO122     -0.2729
     70  CA        35.5940   11.9990   46.3430 C.3   122  PRO122      0.1401
     71  C         35.1550   11.0800   45.2000 C.2   122  PRO122      0.2269
     72  O         34.5750   11.5380   44.2220 O.2   122  PRO122     -0.2865
     73  CB        37.0420   12.4450   46.2150 C.3   122  PRO122      0.0296
     74  CG        37.7850   11.4480   47.0440 C.3   122  PRO122      0.0237
     75  CD        36.9020   11.2980   48.2620 C.3   122  PRO122      0.0939
     76  N         35.5090   19.2230   44.2190 N.3   196  TYR196     -0.1241
     77  CA        36.8120   19.4470   44.8470 C.3   196  TYR196      0.1605
     78  C         36.9120   20.7040   45.7050 C.2   196  TYR196      0.2264
     79  O         37.4500   20.6600   46.8110 O.2   196  TYR196     -0.2867
     80  CB        37.9280   19.4590   43.7920 C.3   196  TYR196      0.0534
     81  CG        39.3140   19.2640   44.3800 C.ar  196  TYR196     -0.0201
     82  CD1       39.6200   18.1240   45.1240 C.ar  196  TYR196     -0.0009
     83  CD2       40.3160   20.2180   44.2010 C.ar  196  TYR196     -0.0009
     84  CE1       40.8840   17.9360   45.6710 C.ar  196  TYR196      0.0417
     85  CE2       41.5920   20.0380   44.7510 C.ar  196  TYR196      0.0417
     86  CZ        41.8660   18.8920   45.4830 C.ar  196  TYR196      0.1957
     87  OH        43.1230   18.6890   46.0130 O.3   196  TYR196     -0.2866
     88  N         35.2590   20.1740   49.0260 N.3   199  LEU199     -0.1231
     89  CA        36.0770   19.3230   49.8850 C.3   199  LEU199      0.1693
     90  C         37.2900   20.0980   50.4250 C.2   199  LEU199      0.2591
     91  O         37.6740   19.9350   51.5870 O.2   199  LEU199     -0.2718
     92  CB        36.5450   18.0900   49.1090 C.3   199  LEU199      0.0284
     93  CG        35.4240   17.1880   48.5770 C.3   199  LEU199      0.0019
     94  CD1       36.0220   16.0250   47.7980 C.3   199  LEU199      0.0001
     95  CD2       34.5790   16.6730   49.7370 C.3   199  LEU199      0.0001
     96  N         37.8900   20.9400   49.5840 N.am  200  GLU200     -0.1979
     97  CA        39.0490   21.7400   49.9970 C.3   200  GLU200      0.1602
     98  C         38.7000   22.7090   51.1240 C.2   200  GLU200      0.2287
     99  O         39.5040   22.9290   52.0310 O.2   200  GLU200     -0.2864
    100  CB        39.5900   22.5700   48.8320 C.3   200  GLU200      0.0415
    101  CG        40.2590   21.8000   47.7220 C.3   200  GLU200      0.1163
    102  CD        40.7900   22.7410   46.6560 C.2   200  GLU200      0.3649
    103  OE1       42.0280   22.9420   46.5860 O.co2 200  GLU200     -0.2457
    104  OE2       39.9560   23.2950   45.9080 O.co2 200  GLU200     -0.2457
    105  N         38.5880   20.8860   54.3600 N.3   203  ALA203     -0.1245
    106  CA        39.9450   20.5640   54.7940 C.3   203  ALA203      0.1562
    107  C         40.6160   21.7740   55.4380 C.2   203  ALA203      0.2260
    108  O         41.2630   21.6570   56.4840 O.2   203  ALA203     -0.2867
    109  CB        40.7720   20.0770   53.6090 C.3   203  ALA203      0.0290
    110  N         30.6770   12.6100   57.1610 N.3   224  PHE224     -0.1241
    111  CA        30.4240   13.2760   55.8830 C.3   224  PHE224      0.1605
    112  C         29.1520   12.6360   55.3330 C.2   224  PHE224      0.2264
    113  O         29.1010   11.4230   55.1470 O.2   224  PHE224     -0.2867
    114  CB        31.5970   13.0510   54.9200 C.3   224  PHE224      0.0534
    115  CG        31.5140   13.8670   53.6600 C.ar  224  PHE224     -0.0203
    116  CD1       30.6410   13.5110   52.6370 C.ar  224  PHE224     -0.0042
    117  CD2       32.2940   15.0080   53.5070 C.ar  224  PHE224     -0.0042
    118  CE1       30.5460   14.2860   51.4730 C.ar  224  PHE224     -0.0003
    119  CE2       32.2050   15.7880   52.3500 C.ar  224  PHE224     -0.0003
    120  CZ        31.3310   15.4260   51.3340 C.ar  224  PHE224     -0.0000
@<TRIPOS>BOND
     1    48    49    1
     2    34    35    1
     3    42    40   ar
     4    42    43   ar
     5    40    39   ar
     6    36    35    1
     7    36    37    2
     8    45    43   ar
     9    45    47   ar
    10    43    41   ar
    11    49    50    1
    12    49    52    1
    13    35    38    1
    14    39    41   ar
    15    39    38    1
    16    47    46   ar
    17    50    51    2
    18    41    44   ar
    19    33    31    1
    20    52    53    1
    21    46    44   ar
    22    53    55   ar
    23    53    54   ar
    24    31    32    1
    25    31    30    2
    26    80    81    1
    27    80    77    1
    28    83    81   ar
    29    83    85   ar
    30    76    77    1
    31    72    71    2
    32    81    82   ar
    33    30    29    1
    34    85    86   ar
    35    60    57    1
    36    77    78    1
    37    82    84   ar
    38    71    70    1
    39    56    57    1
    40    86    84   ar
    41    86    87    1
    42    78    79    2
    43    29    28    1
    44   104   102   ar
    45    57    58    1
    46    25    24    1
    47    25    26    2
    48    73    70    1
    49    73    74    1
    50    27    24    1
    51    27    28    1
    52    70    69    1
    53    59    58    2
    54    24    23    1
    55   103   102   ar
    56   102   101    1
    57    74    75    1
    58    17    16    2
    59    64    63    2
    60    69    63   am
    61    69    75    1
    62   101   100    1
    63    23    16   am
    64    94    93    1
    65    16    15    1
    66    63    62    1
    67    93    92    1
    68    93    95    1
    69   100    97    1
    70    88    89    1
    71    92    89    1
    72    15    14    1
    73    15    18    1
    74    14    12   am
    75    62    61    1
    76    62    65    1
    77    96    97    1
    78    96    90   am
    79     4     3    2
    80    89    90    1
    81    97    98    1
    82    18    19    1
    83    11    12    1
    84    11    10    1
    85    67    65    1
    86    12    13    2
    87    90    91    2
    88    65    66    1
    89     3    10   am
    90     3     2    1
    91    98    99    2
    92    22    20   ar
    93   120   118   ar
    94   120   119   ar
    95   118   116   ar
    96    19    20    1
    97    20    21   ar
    98    66    68    1
    99     2     1    1
   100     2     5    1
   101   119   117   ar
   102   116   115   ar
   103     5     6    1
   104   117   115   ar
   105   109   106    1
   106   115   114    1
   107     6     7    1
   108   105   106    1
   109     8     7   ar
   110   106   107    1
   111     7     9   ar
   112   114   111    1
   113   113   112    2
   114   112   111    1
   115   107   108    2
   116   111   110    1
