@<TRIPOS>MOLECULE
tmp/1q0cD00.pdb
 144 141 0 0 0
SMALL
GASTEIGER

@<TRIPOS>ATOM
      1  N        102.7740   12.6130    5.9070 N.3   152  HIS152     -0.1241
      2  CA       102.4910   13.6850    6.8260 C.3   152  HIS152      0.1621
      3  C        101.8480   14.8950    6.1480 C.2   152  HIS152      0.2264
      4  O        101.7990   14.9830    4.9080 O.2   152  HIS152     -0.2867
      5  CB       103.7920   14.1590    7.4660 C.3   152  HIS152      0.0745
      6  CG       104.7340   14.8210    6.5170 C.ar  152  HIS152      0.0817
      7  ND1      105.8060   14.1670    5.9520 N.ar  152  HIS152     -0.2268
      8  CD2      104.8430   16.1240    6.1240 C.ar  152  HIS152      0.1154
      9  CE1      106.5470   15.0370    5.2760 C.ar  152  HIS152      0.1986
     10  NE2      105.9840   16.2270    5.3680 N.ar  152  HIS152     -0.2212
     11  N        101.7260   19.3740    6.6090 N.3   154  ASN154     -0.1240
     12  CA       102.5220   20.4170    7.1950 C.3   154  ASN154      0.1653
     13  C        101.5760   21.6230    7.1800 C.2   154  ASN154      0.2266
     14  O        101.0460   21.9870    6.1360 O.2   154  ASN154     -0.2867
     15  CB       103.8040   20.6680    6.4000 C.3   154  ASN154      0.1155
     16  CG       104.7340   21.6850    7.1130 C.2   154  ASN154      0.2627
     17  OD1      104.2880   22.7730    7.4740 O.2   154  ASN154     -0.2716
     18  ND2      106.0160   21.3200    7.3190 N.am  154  ASN154     -0.0877
     19  N        108.0430   19.5120   14.3510 N.3   189  TRP189     -0.1241
     20  CA       107.6300   18.3080   13.6520 C.3   189  TRP189      0.1605
     21  C        107.1600   17.3200   14.7080 C.2   189  TRP189      0.2264
     22  O        107.8390   17.0800   15.6910 O.2   189  TRP189     -0.2867
     23  CB       108.8530   17.7760   12.9030 C.3   189  TRP189      0.0550
     24  CG       109.1910   18.5720   11.6430 C.ar  189  TRP189      0.0003
     25  CD1      108.9100   18.1960   10.3620 C.ar  189  TRP189      0.0946
     26  CD2      109.8320   19.8650   11.5480 C.ar  189  TRP189      0.0152
     27  NE1      109.3190   19.1660    9.4810 N.ar  189  TRP189     -0.2442
     28  CE2      109.8870   20.1990   10.1710 C.ar  189  TRP189      0.0810
     29  CE3      110.3570   20.7630   12.4850 C.ar  189  TRP189      0.0012
     30  CZ2      110.4480   21.3890    9.6960 C.ar  189  TRP189      0.0191
     31  CZ3      110.9130   21.9540   12.0210 C.ar  189  TRP189      0.0001
     32  CH2      110.9540   22.2590   10.6270 C.ar  189  TRP189      0.0015
     33  N        107.3470   12.5930   11.4690 N.3   197  HIS197     -0.1241
     34  CA       106.0990   13.3250   11.7190 C.3   197  HIS197      0.1621
     35  C        104.8810   12.8320   11.0010 C.2   197  HIS197      0.2264
     36  O        104.9950   12.1040    9.9800 O.2   197  HIS197     -0.2867
     37  CB       106.2040   14.8350   11.4010 C.3   197  HIS197      0.0745
     38  CG       106.6520   15.1630   10.0050 C.ar  197  HIS197      0.0817
     39  ND1      107.6570   14.4710    9.3540 N.ar  197  HIS197     -0.2268
     40  CD2      106.3810   16.2440    9.2270 C.ar  197  HIS197      0.1154
     41  CE1      107.9990   15.1200    8.2470 C.ar  197  HIS197      0.1986
     42  NE2      107.2390   16.2000    8.1510 N.ar  197  HIS197     -0.2212
     43  N        101.5570   21.7060    2.7610 N.3   211  HIS211     -0.1241
     44  CA       101.6450   20.5990    1.8100 C.3   211  HIS211      0.1621
     45  C        101.2070   19.3070    2.4570 C.2   211  HIS211      0.2264
     46  O        101.0140   19.2050    3.7060 O.2   211  HIS211     -0.2867
     47  CB       103.0930   20.3930    1.2780 C.3   211  HIS211      0.0745
     48  CG       104.1170   20.1620    2.3590 C.ar  211  HIS211      0.0817
     49  ND1      104.8550   21.1850    2.9310 N.ar  211  HIS211     -0.2268
     50  CD2      104.5150   19.0180    2.9820 C.ar  211  HIS211      0.1154
     51  CE1      105.6670   20.6750    3.8450 C.ar  211  HIS211      0.1986
     52  NE2      105.4780   19.3680    3.8960 N.ar  211  HIS211     -0.2212
     53  N        110.5670   23.1190   -5.4310 N.3   240  ARG240     -0.1245
     54  CA       111.7690   23.1670   -4.6280 C.3   240  ARG240      0.1563
     55  C        112.3510   21.7870   -4.5620 C.2   240  ARG240      0.2260
     56  O        111.6170   20.8310   -4.4300 O.2   240  ARG240     -0.2867
     57  CB       111.4030   23.6870   -3.2220 C.3   240  ARG240      0.0307
     58  CG       112.5530   23.7270   -2.2790 C.3   240  ARG240      0.0489
     59  CD       112.1490   24.1490   -0.9090 C.3   240  ARG240      0.2205
     60  NE       113.2520   23.8050   -0.0320 N.pl3 240  ARG240     -0.0865
     61  CZ       113.1820   23.6530    1.2830 C.cat 240  ARG240      0.5346
     62  NH1      112.0390   23.8250    1.9370 N.pl3 240  ARG240      0.1354
     63  NH2      114.2640   23.2660    1.9350 N.pl3 240  ARG240      0.1354
     64  N        116.8530   17.2350    3.3160 N.3   245  HIS245     -0.1241
     65  CA       116.4290   18.1480    4.3910 C.3   245  HIS245      0.1621
     66  C        117.4220   18.0190    5.5410 C.2   245  HIS245      0.2264
     67  O        118.0000   16.9330    5.7330 O.2   245  HIS245     -0.2867
     68  CB       115.0890   17.6870    4.9920 C.3   245  HIS245      0.0745
     69  CG       113.8670   18.0600    4.2040 C.ar  245  HIS245      0.0817
     70  ND1      113.5760   19.3610    3.8450 N.ar  245  HIS245     -0.2268
     71  CD2      112.7930   17.3090    3.8230 C.ar  245  HIS245      0.1154
     72  CE1      112.3750   19.3980    3.2860 C.ar  245  HIS245      0.1986
     73  NE2      111.8790   18.1690    3.2650 N.ar  245  HIS245     -0.2212
     74  N        116.4450   19.1190    8.9140 N.3   247  VAL247     -0.1231
     75  CA       115.3930   18.6220    9.8120 C.3   247  VAL247      0.1692
     76  C        114.7590   17.3850    9.1200 C.2   247  VAL247      0.2592
     77  O        114.3900   17.4490    7.9580 O.2   247  VAL247     -0.2718
     78  CB       114.2900   19.6690    9.9670 C.3   247  VAL247      0.0266
     79  CG1      113.0820   19.0570   10.6390 C.3   247  VAL247      0.0020
     80  CG2      114.8290   20.8930   10.7100 C.3   247  VAL247      0.0020
     81  N        114.6940   16.2680    9.8270 N.am  248  SER248     -0.1952
     82  CA       114.1240   15.0000    9.3310 C.3   248  SER248      0.1924
     83  C        115.0670   14.1560    8.5320 C.2   248  SER248      0.2314
     84  O        114.8800   12.9420    8.4910 O.2   248  SER248     -0.2863
     85  CB       112.8210   15.1640    8.5310 C.3   248  SER248      0.2116
     86  OG       113.0770   15.3500    7.1680 O.3   248  SER248     -0.2180
     87  N        109.4020   19.1410   -3.7500 N.3   254  TYR254     -0.1241
     88  CA       108.0990   19.8050   -3.6180 C.3   254  TYR254      0.1605
     89  C        107.6460   20.2110   -5.0180 C.2   254  TYR254      0.2264
     90  O        108.3980   20.8700   -5.7180 O.2   254  TYR254     -0.2867
     91  CB       108.1830   21.0750   -2.7580 C.3   254  TYR254      0.0534
     92  CG       108.5110   20.8120   -1.3170 C.ar  254  TYR254     -0.0201
     93  CD1      107.5020   20.4610   -0.3800 C.ar  254  TYR254     -0.0009
     94  CD2      109.8070   20.9570   -0.8660 C.ar  254  TYR254     -0.0009
     95  CE1      107.8240   20.2870    0.9680 C.ar  254  TYR254      0.0417
     96  CE2      110.1250   20.7600    0.4350 C.ar  254  TYR254      0.0417
     97  CZ       109.1340   20.4330    1.3430 C.ar  254  TYR254      0.1957
     98  OH       109.5210   20.2240    2.6200 O.3   254  TYR254     -0.2866
     99  N        104.5400   17.1640   -1.3380 N.3   264  GLU264     -0.1245
    100  CA       105.9380   16.8350   -1.1100 C.3   264  GLU264      0.1567
    101  C        106.1460   15.3220   -1.3540 C.2   264  GLU264      0.2260
    102  O        105.2960   14.5160   -0.9730 O.2   264  GLU264     -0.2867
    103  CB       106.3730   17.1690    0.3240 C.3   264  GLU264      0.0388
    104  CG       107.8170   16.8520    0.5540 C.3   264  GLU264      0.1160
    105  CD       108.2570   17.0420    1.9960 C.2   264  GLU264      0.3649
    106  OE1      107.3710   17.2460    2.8210 O.co2 264  GLU264     -0.2457
    107  OE2      109.4880   16.9700    2.3000 O.co2 264  GLU264     -0.2457
    108  N        108.9890   12.4340   -0.5920 N.3   266  TYR266     -0.1241
    109  CA       109.9770   12.3660    0.4800 C.3   266  TYR266      0.1605
    110  C        110.4200   10.9170    0.5960 C.2   266  TYR266      0.2264
    111  O        109.6490   10.0160    0.2610 O.2   266  TYR266     -0.2867
    112  CB       109.1030   12.7270    1.6950 C.3   266  TYR266      0.0534
    113  CG       109.5430   12.7170    3.1150 C.ar  266  TYR266     -0.0201
    114  CD1      109.4550   11.5540    3.9220 C.ar  266  TYR266     -0.0009
    115  CD2      109.8990   13.9310    3.7250 C.ar  266  TYR266     -0.0009
    116  CE1      109.7140   11.6340    5.3220 C.ar  266  TYR266      0.0417
    117  CE2      110.1670   14.0400    5.1040 C.ar  266  TYR266      0.0417
    118  CZ       110.0810   12.9040    5.9050 C.ar  266  TYR266      0.1957
    119  OH       110.4200   13.0760    7.2430 O.3   266  TYR266     -0.2866
    120  N        117.2790   23.5330    6.8120 N.3   290  ARG290     -0.1245
    121  CA       116.1960   23.2590    5.8600 C.3   290  ARG290      0.1563
    122  C        116.7830   22.4020    4.7610 C.2   290  ARG290      0.2260
    123  O        116.3500   21.2550    4.5530 O.2   290  ARG290     -0.2867
    124  CB       115.6140   24.5600    5.2680 C.3   290  ARG290      0.0307
    125  CG       115.2280   25.6070    6.3650 C.3   290  ARG290      0.0489
    126  CD       113.9330   26.4570    6.0900 C.3   290  ARG290      0.2205
    127  NE       112.7360   25.6480    6.2380 N.pl3 290  ARG290     -0.0865
    128  CZ       111.9150   25.6760    7.2780 C.cat 290  ARG290      0.5346
    129  NH1      112.1440   26.5030    8.2660 N.pl3 290  ARG290      0.1354
    130  NH2      110.9120   24.8010    7.3660 N.pl3 290  ARG290      0.1354
    131  N        108.1090   29.2480   -1.4010 N.3   301  TRP301     -0.1241
    132  CA       107.9430   28.1440   -0.4810 C.3   301  TRP301      0.1605
    133  C        107.4870   28.6820    0.8600 C.2   301  TRP301      0.2264
    134  O        106.6680   28.0650    1.5370 O.2   301  TRP301     -0.2867
    135  CB       109.2450   27.3330   -0.3280 C.3   301  TRP301      0.0550
    136  CG       109.0420   25.9790    0.3420 C.ar  301  TRP301      0.0003
    137  CD1      108.7070   24.7910   -0.2640 C.ar  301  TRP301      0.0946
    138  CD2      109.1650   25.6940    1.7290 C.ar  301  TRP301      0.0152
    139  NE1      108.6200   23.7790    0.6670 N.ar  301  TRP301     -0.2442
    140  CE2      108.8950   24.3030    1.9010 C.ar  301  TRP301      0.0810
    141  CE3      109.4700   26.4720    2.8550 C.ar  301  TRP301      0.0012
    142  CZ2      108.9270   23.6830    3.1510 C.ar  301  TRP301      0.0191
    143  CZ3      109.4970   25.8580    4.1090 C.ar  301  TRP301      0.0001
    144  CH2      109.2270   24.4700    4.2470 C.ar  301  TRP301      0.0015
@<TRIPOS>BOND
     1    90    89    2
     2    53    54    1
     3    89    88    1
     4    54    55    1
     5    54    57    1
     6    55    56    2
     7    87    88    1
     8    88    91    1
     9    57    58    1
    10    91    92    1
    11    58    59    1
    12   131   132    1
    13   101   100    1
    14   101   102    2
    15    99   100    1
    16    92    94   ar
    17    92    93   ar
    18   100   103    1
    19    59    60    1
    20    94    96   ar
    21   108   109    1
    22   132   135    1
    23   132   133    1
    24    93    95   ar
    25   135   136    1
    26   137   136   ar
    27   137   139   ar
    28    60    61    2
    29   111   110    2
    30   103   104    1
    31   136   138   ar
    32    96    97   ar
    33   109   110    1
    34   109   112    1
    35   104   105    1
    36   139   140   ar
    37   133   134    2
    38    95    97   ar
    39    47    44    1
    40    47    48    1
    41    61    63    1
    42    61    62    1
    43    97    98    1
    44   112   113    1
    45   138   140   ar
    46   138   141   ar
    47    44    45    1
    48    44    43    1
    49   140   142   ar
    50   105   107   ar
    51   105   106   ar
    52    48    49   ar
    53    48    50   ar
    54    45    46    2
    55   141   143   ar
    56    49    51   ar
    57    50    52   ar
    58   113   115   ar
    59   113   114   ar
    60   142   144   ar
    61    73    72   ar
    62    73    71   ar
    63    72    70   ar
    64    64    65    1
    65   115   117   ar
    66    71    69   ar
    67    70    69   ar
    68    51    52   ar
    69   114   116   ar
    70   143   144   ar
    71    69    68    1
    72    65    68    1
    73    65    66    1
    74   123   122    2
    75   122   121    1
    76     4     3    2
    77   117   118   ar
    78   124   121    1
    79   124   125    1
    80     9    10   ar
    81     9     7   ar
    82   116   118   ar
    83    10     8   ar
    84    66    67    2
    85   121   120    1
    86   118   119    1
    87     1     2    1
    88     7     6   ar
    89   126   127    1
    90   126   125    1
    91     8     6   ar
    92    14    13    2
    93     3     2    1
    94   127   128    2
    95    15    16    1
    96    15    12    1
    97     6     5    1
    98    11    12    1
    99     2     5    1
   100    16    18   am
   101    16    17    2
   102    86    85    1
   103    13    12    1
   104   128   130    1
   105   128   129    1
   106    77    76    2
   107    42    41   ar
   108    42    40   ar
   109    41    39   ar
   110    84    83    2
   111    85    82    1
   112    83    82    1
   113    74    75    1
   114    76    75    1
   115    76    81   am
   116    40    38   ar
   117    82    81    1
   118    39    38   ar
   119    27    28   ar
   120    27    25   ar
   121    30    28   ar
   122    30    32   ar
   123    75    78    1
   124    78    79    1
   125    78    80    1
   126    36    35    2
   127    38    37    1
   128    28    26   ar
   129    25    24   ar
   130    32    31   ar
   131    35    34    1
   132    37    34    1
   133    33    34    1
   134    26    24   ar
   135    26    29   ar
   136    24    23    1
   137    31    29   ar
   138    23    20    1
   139    20    19    1
   140    20    21    1
   141    21    22    2
