@<TRIPOS>MOLECULE
tmp/1q0hA01.pdb
 148 139 0 0 0
SMALL
GASTEIGER

@<TRIPOS>ATOM
      1  N         39.7130   15.6210   31.8430 N.3     7  GLY7       -0.1225
      2  CA        40.4590   16.8640   31.9930 C.3     7  GLY7        0.1811
      3  C         40.9180   17.1140   33.4270 C.2     7  GLY7        0.2280
      4  O         40.7550   18.2110   33.9680 O.2     7  GLY7       -0.2866
      5  N         43.8810   17.2890   34.9650 N.3     9  THR9       -0.1203
      6  CA        45.0290   18.1490   35.2630 C.3     9  THR9        0.1994
      7  C         44.7540   19.6380   35.0570 C.2     9  THR9        0.2618
      8  O         45.6220   20.4620   35.3260 O.2     9  THR9       -0.2717
      9  CB        46.2420   17.7660   34.4000 C.3     9  THR9        0.1784
     10  OG1       45.9010   17.8830   33.0240 O.3     9  THR9       -0.2211
     11  CG2       46.6360   16.2950   34.5870 C.3     9  THR9        0.0376
     12  N         43.5610   19.9790   34.5760 N.am   10  GLY10      -0.1942
     13  CA        43.2080   21.3570   34.3080 C.3    10  GLY10       0.2014
     14  C         42.7470   22.0750   35.5560 C.2    10  GLY10       0.2640
     15  O         42.7450   21.5000   36.6360 O.2    10  GLY10      -0.2714
     16  N         42.3640   23.3390   35.4190 N.am   11  SER11      -0.1935
     17  CA        41.9360   24.1200   36.5720 C.3    11  SER11       0.2055
     18  C         40.6910   23.5230   37.2120 C.2    11  SER11       0.2643
     19  O         40.6340   23.3750   38.4270 O.2    11  SER11      -0.2714
     20  CB        41.6920   25.5890   36.2030 C.3    11  SER11       0.2130
     21  OG        41.2300   26.3220   37.3360 O.3    11  SER11      -0.2179
     22  N         39.6940   23.1810   36.4060 N.am   12  ILE12      -0.1963
     23  CA        38.4690   22.5880   36.9400 C.3    12  ILE12       0.1727
     24  C         38.7140   21.1580   37.4320 C.2    12  ILE12       0.2616
     25  O         38.1830   20.7630   38.4550 O.2    12  ILE12      -0.2715
     26  CB        37.3340   22.6490   35.9040 C.3    12  ILE12       0.0290
     27  CG1       36.8230   24.0820   35.7970 C.3    12  ILE12       0.0022
     28  CG2       36.1710   21.7170   36.2960 C.3    12  ILE12       0.0023
     29  CD1       36.1340   24.3620   34.4930 C.3    12  ILE12       0.0001
     30  N         39.5430   20.3990   36.7170 N.am   13  GLY13      -0.1955
     31  CA        39.9250   19.0670   37.1680 C.3    13  GLY13       0.1869
     32  C         40.5880   19.0810   38.5370 C.2    13  GLY13       0.2309
     33  O         40.2710   18.2600   39.3960 O.2    13  GLY13      -0.2863
     34  N         41.5140   11.2930   33.2850 N.3    33  VAL33      -0.1231
     35  CA        41.8620   11.4880   31.8770 C.3    33  VAL33       0.1692
     36  C         42.4410   12.8880   31.7020 C.2    33  VAL33       0.2592
     37  O         41.8550   13.8660   32.1550 O.2    33  VAL33      -0.2718
     38  CB        40.6370   11.3280   30.9340 C.3    33  VAL33       0.0266
     39  CG1       41.0130   11.6270   29.4870 C.3    33  VAL33       0.0020
     40  CG2       40.0350    9.9320   31.0570 C.3    33  VAL33       0.0020
     41  N         43.5990   12.9710   31.0510 N.am   34  ALA34      -0.1966
     42  CA        44.2740   14.2360   30.8110 C.3    34  ALA34       0.1728
     43  C         44.9800   14.2060   29.4510 C.2    34  ALA34       0.2617
     44  O         44.7810   13.2770   28.6570 O.2    34  ALA34      -0.2715
     45  CB        45.2550   14.5210   31.9450 C.3    34  ALA34       0.0334
     46  N         45.7940   15.2230   29.1820 N.am   35  GLY35      -0.1940
     47  CA        46.4190   15.4050   27.8790 C.3    35  GLY35       0.2014
     48  C         47.9130   15.1370   27.8720 C.2    35  GLY35       0.2639
     49  O         48.3520   14.0190   27.5710 O.2    35  GLY35      -0.2714
     50  N         48.6910   16.1700   28.2120 N.am   36  LYS36      -0.1963
     51  CA        50.1550   16.1350   28.1270 C.3    36  LYS36       0.1728
     52  C         50.8890   16.5320   29.4130 C.2    36  LYS36       0.2616
     53  O         52.1070   16.3720   29.4850 O.2    36  LYS36      -0.2715
     54  CB        50.6460   17.0790   27.0250 C.3    36  LYS36       0.0311
     55  CG        49.9920   16.9250   25.6630 C.3    36  LYS36       0.0038
     56  CD        50.5670   17.9740   24.6880 C.3    36  LYS36       0.0206
     57  CE        50.0180   17.8170   23.2660 C.3    36  LYS36       0.1093
     58  NZ        49.4100   19.0920   22.7750 N.3    36  LYS36      -0.1314
     59  N         50.1750   17.0720   30.4020 N.am   37  ASN37      -0.1972
     60  CA        50.7990   17.5290   31.6520 C.3    37  ASN37       0.1688
     61  C         51.1020   16.3590   32.5800 C.2    37  ASN37       0.2292
     62  O         50.3070   16.0100   33.4480 O.2    37  ASN37      -0.2864
     63  CB        49.9180   18.5520   32.3590 C.3    37  ASN37       0.1181
     64  CG        50.6200   19.2210   33.5260 C.2    37  ASN37       0.2629
     65  OD1       51.6470   18.7500   34.0080 O.2    37  ASN37      -0.2716
     66  ND2       50.0660   20.3320   33.9790 N.am   37  ASN37      -0.0877
     67  N         46.2730   11.7920   26.4570 N.3    54  ASP54      -0.1239
     68  CA        45.8560   11.8570   25.0550 C.3    54  ASP54       0.1674
     69  C         46.9140   11.3150   24.0780 C.2    54  ASP54       0.2266
     70  O         46.5620   10.6060   23.1320 O.2    54  ASP54      -0.2867
     71  CB        45.3950   13.2710   24.6570 C.3    54  ASP54       0.1410
     72  CG        44.5590   13.2750   23.3650 C.2    54  ASP54       0.3668
     73  OD1       43.5520   12.5170   23.2780 O.co2  54  ASP54      -0.2456
     74  OD2       44.8450   13.9960   22.3790 O.co2  54  ASP54      -0.2456
     75  N         39.6060    7.2230   26.7070 N.3    81  ALA81      -0.1245
     76  CA        38.8560    8.2050   27.4930 C.3    81  ALA81       0.1562
     77  C         37.3550    7.9180   27.4940 C.2    81  ALA81       0.2260
     78  O         36.6890    8.0600   28.5170 O.2    81  ALA81      -0.2867
     79  CB        39.1240    9.6140   26.9650 C.3    81  ALA81       0.0290
     80  N         35.3340   17.9300   32.1190 N.3    94  ALA94      -0.1231
     81  CA        36.1010   19.1750   32.2300 C.3    94  ALA94       0.1694
     82  C         37.2800   19.2650   31.2500 C.2    94  ALA94       0.2592
     83  O         38.2720   19.9280   31.5290 O.2    94  ALA94      -0.2718
     84  CB        36.5860   19.3620   33.6690 C.3    94  ALA94       0.0304
     85  N         37.1770   18.5920   30.1120 N.am   95  ILE95      -0.1966
     86  CA        38.1160   18.8060   29.0160 C.3    95  ILE95       0.1727
     87  C         37.8290   20.1930   28.4310 C.2    95  ILE95       0.2616
     88  O         36.6920   20.6630   28.4730 O.2    95  ILE95      -0.2715
     89  CB        37.9750   17.6940   27.9450 C.3    95  ILE95       0.0290
     90  CG1       38.5240   16.3640   28.4850 C.3    95  ILE95       0.0022
     91  CG2       38.7210   18.0740   26.6500 C.3    95  ILE95       0.0023
     92  CD1       38.1150   15.1410   27.6900 C.3    95  ILE95       0.0001
     93  N         38.8540   20.8640   27.9170 N.am   96  VAL96      -0.1977
     94  CA        38.6460   22.1620   27.2760 C.3    96  VAL96       0.1596
     95  C         38.4900   21.9790   25.7780 C.2    96  VAL96       0.2287
     96  O         39.2280   21.2190   25.1540 O.2    96  VAL96      -0.2864
     97  CB        39.7740   23.1550   27.6150 C.3    96  VAL96       0.0276
     98  CG1       39.6730   24.4430   26.7810 C.3    96  VAL96       0.0022
     99  CG2       39.6780   23.5150   29.0700 C.3    96  VAL96       0.0022
    100  N         37.1920   18.9760   21.6920 N.3    99  ALA99      -0.1245
    101  CA        37.8410   17.6750   21.8730 C.3    99  ALA99       0.1562
    102  C         37.2130   16.8650   23.0220 C.2    99  ALA99       0.2260
    103  O         37.3590   15.6500   23.0770 O.2    99  ALA99      -0.2867
    104  CB        39.3430   17.8610   22.1140 C.3    99  ALA99       0.0290
    105  N         34.2270   11.8050   24.4510 N.3   103  PRO103     -0.2116
    106  CA        34.2110   11.2030   25.7940 C.3   103  PRO103      0.1372
    107  C         32.9740   11.5820   26.6180 C.2   103  PRO103      0.2244
    108  O         32.4680   10.7440   27.3460 O.2   103  PRO103     -0.2868
    109  CB        35.4850   11.7360   26.4400 C.3   103  PRO103      0.0268
    110  CG        36.3600   12.1560   25.2990 C.3   103  PRO103      0.0207
    111  CD        35.4520   12.5900   24.2120 C.3   103  PRO103      0.0892
    112  N         31.1960   20.6800   32.7640 N.3   117  ALA117     -0.1245
    113  CA        32.0440   21.8770   32.7640 C.3   117  ALA117      0.1562
    114  C         32.8350   22.0150   31.4670 C.2   117  ALA117      0.2260
    115  O         33.9760   22.4640   31.4730 O.2   117  ALA117     -0.2867
    116  CB        32.9960   21.8400   33.9350 C.3   117  ALA117      0.0290
    117  N         41.9890   28.3230   33.6460 N.3   206  GLY206     -0.1210
    118  CA        42.8430   28.0580   32.5050 C.3   206  GLY206      0.1956
    119  C         42.9810   29.2470   31.5700 C.2   206  GLY206      0.2612
    120  O         42.2170   30.2090   31.6250 O.2   206  GLY206     -0.2717
    121  N         43.9740   29.1740   30.7000 N.am  207  ARG207     -0.1965
    122  CA        44.2880   30.2860   29.8160 C.3   207  ARG207      0.1729
    123  C         43.1820   30.5280   28.7780 C.2   207  ARG207      0.2616
    124  O         42.7960   31.6720   28.5430 O.2   207  ARG207     -0.2715
    125  CB        45.6500   30.0570   29.1640 C.3   207  ARG207      0.0348
    126  CG        46.7690   30.0190   30.1950 C.3   207  ARG207      0.0492
    127  CD        48.1750   29.9080   29.6230 C.3   207  ARG207      0.2205
    128  NE        48.7410   31.2020   29.2430 N.pl3 207  ARG207     -0.0865
    129  CZ        49.0970   32.1790   30.0870 C.cat 207  ARG207      0.5346
    130  NH1       48.9500   32.0480   31.4060 N.pl3 207  ARG207      0.1354
    131  NH2       49.6070   33.3120   29.5990 N.pl3 207  ARG207      0.1354
    132  N         42.6570   29.4560   28.1920 N.am  208  LYS208     -0.1963
    133  CA        41.5880   29.5550   27.1960 C.3   208  LYS208      0.1728
    134  C         40.3880   30.3120   27.7570 C.2   208  LYS208      0.2616
    135  O         39.9080   31.2620   27.1520 O.2   208  LYS208     -0.2715
    136  CB        41.1560   28.1590   26.7190 C.3   208  LYS208      0.0311
    137  CG        40.5380   28.1190   25.3270 C.3   208  LYS208      0.0038
    138  CD        39.0950   28.6120   25.3050 C.3   208  LYS208      0.0206
    139  CE        38.3290   28.0620   24.0940 C.3   208  LYS208      0.1093
    140  NZ        36.8720   28.4120   24.1230 N.3   208  LYS208     -0.1314
    141  N         39.9290   29.9070   28.9340 N.am  209  ILE209     -0.1977
    142  CA        38.7350   30.4860   29.5330 C.3   209  ILE209      0.1596
    143  C         39.0070   31.9250   29.9730 C.2   209  ILE209      0.2287
    144  O         38.1110   32.7630   29.9620 O.2   209  ILE209     -0.2864
    145  CB        38.2210   29.5660   30.7090 C.3   209  ILE209      0.0276
    146  CG1       36.7020   29.6570   30.8750 C.3   209  ILE209      0.0022
    147  CG2       38.9510   29.8270   32.0340 C.3   209  ILE209      0.0022
    148  CD1       36.1790   30.9800   31.3670 C.3   209  ILE209      0.0001
@<TRIPOS>BOND
     1   100   101    1
     2   101   104    1
     3   101   102    1
     4    74    72   ar
     5    58    57    1
     6   102   103    2
     7    70    69    2
     8    57    56    1
     9    73    72   ar
    10    72    71    1
    11    69    68    1
    12   139   140    1
    13   139   138    1
    14   111   105    1
    15   111   110    1
    16   105   106    1
    17    71    68    1
    18    56    55    1
    19    68    67    1
    20    96    95    2
    21   110   109    1
    22   138   137    1
    23   137   136    1
    24    55    54    1
    25    95    94    1
    26   106   109    1
    27   106   107    1
    28   107   108    2
    29    91    89    1
    30    75    76    1
    31   136   133    1
    32    98    97    1
    33    79    76    1
    34    54    51    1
    35   135   134    2
    36   133   134    1
    37   133   132    1
    38    94    97    1
    39    94    93    1
    40    76    77    1
    41    77    78    2
    42    49    48    2
    43    97    99    1
    44    92    90    1
    45   134   141   am
    46    48    47    1
    47    48    50   am
    48    47    46    1
    49    93    87   am
    50    89    90    1
    51    89    86    1
    52    51    50    1
    53    51    52    1
    54   132   123   am
    55    87    88    2
    56    87    86    1
    57   124   123    2
    58    44    43    2
    59   123   122    1
    60   141   142    1
    61    86    85    1
    62   125   122    1
    63   125   126    1
    64    46    43   am
    65   128   127    1
    66   128   129    2
    67    52    53    2
    68    52    59   am
    69    43    42    1
    70    39    38    1
    71   142   143    1
    72   142   145    1
    73   131   129    1
    74   127   126    1
    75   122   121    1
    76   144   143    2
    77   129   130    1
    78    85    82   am
    79    59    60    1
    80   121   119   am
    81   145   146    1
    82   145   147    1
    83    42    41    1
    84    42    45    1
    85   146   148    1
    86    38    40    1
    87    38    35    1
    88    41    36   am
    89    82    83    2
    90    82    81    1
    91   114   115    2
    92   114   113    1
    93   119   120    2
    94   119   118    1
    95    60    63    1
    96    60    61    1
    97    36    35    1
    98    36    37    2
    99     1     2    1
   100    35    34    1
   101     2     3    1
   102    80    81    1
   103    81    84    1
   104    63    64    1
   105   118   117    1
   106    61    62    2
   107   112   113    1
   108   113   116    1
   109    10     9    1
   110     3     4    2
   111    64    66   am
   112    64    65    2
   113    13    12    1
   114    13    14    1
   115     9    11    1
   116     9     6    1
   117    29    27    1
   118    12     7   am
   119     5     6    1
   120     7     6    1
   121     7     8    2
   122    16    14   am
   123    16    17    1
   124    14    15    2
   125    27    26    1
   126    26    28    1
   127    26    23    1
   128    20    17    1
   129    20    21    1
   130    22    23    1
   131    22    18   am
   132    17    18    1
   133    30    31    1
   134    30    24   am
   135    23    24    1
   136    31    32    1
   137    18    19    2
   138    24    25    2
   139    32    33    2
