@<TRIPOS>MOLECULE
tmp/1q0qB00.pdb
 144 134 0 0 0
SMALL
GASTEIGER

@<TRIPOS>ATOM
      1  N         13.3130  -27.2040   65.2000 N.3   125  LYS125     -0.1245
      2  CA        13.9960  -26.1070   65.8830 C.3   125  LYS125      0.1561
      3  C         13.9610  -26.2070   67.4110 C.2   125  LYS125      0.2260
      4  O         14.8540  -25.6970   68.0830 O.2   125  LYS125     -0.2867
      5  CB        13.4260  -24.7540   65.4270 C.3   125  LYS125      0.0271
      6  CG        11.9690  -24.5010   65.8090 C.3   125  LYS125      0.0035
      7  CD        11.3950  -23.3080   65.0480 C.3   125  LYS125      0.0206
      8  CE        10.7990  -23.7230   63.7120 C.3   125  LYS125      0.1093
      9  NZ        10.2310  -22.5640   62.9560 N.3   125  LYS125     -0.1314
     10  N         14.6320  -25.0370   58.2240 N.3   150  ASP150     -0.1225
     11  CA        13.7170  -23.9610   58.5910 C.3   150  ASP150      0.1805
     12  C         13.8790  -22.8100   57.6030 C.2   150  ASP150      0.2598
     13  O         14.9940  -22.3700   57.3560 O.2   150  ASP150     -0.2718
     14  CB        14.0330  -23.5090   60.0210 C.3   150  ASP150      0.1424
     15  CG        12.8960  -22.7410   60.6660 C.2   150  ASP150      0.3668
     16  OD1       12.9640  -22.4990   61.8900 O.co2 150  ASP150     -0.2456
     17  OD2       11.8940  -22.3420   60.0490 O.co2 150  ASP150     -0.2456
     18  N         12.7720  -22.3490   57.0260 N.am  151  SER151     -0.1938
     19  CA        12.7910  -21.4090   55.8940 C.3   151  SER151      0.2055
     20  C         13.7120  -20.2060   56.0810 C.2   151  SER151      0.2642
     21  O         14.5330  -19.9070   55.2210 O.2   151  SER151     -0.2714
     22  CB        11.3750  -20.9100   55.6000 C.3   151  SER151      0.2130
     23  OG        11.3610  -20.0040   54.5090 O.3   151  SER151     -0.2179
     24  N         13.5740  -19.5320   57.2140 N.am  152  GLU152     -0.1976
     25  CA        14.3150  -18.3020   57.4900 C.3   152  GLU152      0.1602
     26  C         15.8080  -18.5840   57.6110 C.2   152  GLU152      0.2287
     27  O         16.6420  -17.8660   57.0590 O.2   152  GLU152     -0.2864
     28  CB        13.8170  -17.6700   58.7940 C.3   152  GLU152      0.0415
     29  CG        12.4210  -17.0820   58.7250 C.3   152  GLU152      0.1163
     30  CD        11.3000  -18.1050   58.8390 C.2   152  GLU152      0.3649
     31  OE1       11.5580  -19.2980   59.1330 O.co2 152  GLU152     -0.2457
     32  OE2       10.1440  -17.6980   58.6380 O.co2 152  GLU152     -0.2457
     33  N          9.1890  -12.9980   59.6460 N.3   185  GLY185     -0.1210
     34  CA         8.4620  -11.8070   59.3090 C.3   185  GLY185      0.1956
     35  C          6.9320  -11.7800   59.3550 C.2   185  GLY185      0.2613
     36  O          6.4260  -10.7200   59.6000 O.2   185  GLY185     -0.2717
     37  N          6.1840  -12.8670   59.1310 N.am  186  SER186     -0.1938
     38  CA         4.7570  -12.7090   58.7080 C.3   186  SER186      0.2055
     39  C          3.7540  -12.0260   59.6750 C.2   186  SER186      0.2644
     40  O          2.9200  -11.2310   59.2340 O.2   186  SER186     -0.2714
     41  CB         4.1580  -14.0380   58.1830 C.3   186  SER186      0.2130
     42  OG         3.2020  -14.5910   59.0690 O.3   186  SER186     -0.2179
     43  N          3.8080  -12.3480   60.9620 N.am  187  GLY187     -0.1939
     44  CA         2.8390  -11.8420   61.9260 C.3   187  GLY187      0.2014
     45  C          1.6570  -12.7700   62.1950 C.2   187  GLY187      0.2639
     46  O          0.9190  -12.5720   63.1650 O.2   187  GLY187     -0.2714
     47  N          1.4710  -13.7760   61.3420 N.am  188  GLY188     -0.1954
     48  CA         0.4520  -14.7900   61.5480 C.3   188  GLY188      0.1869
     49  C         -0.9310  -14.3760   61.0740 C.2   188  GLY188      0.2309
     50  O         -1.1040  -13.2920   60.5040 O.2   188  GLY188     -0.2863
     51  N         -2.7150  -20.3510   58.6620 N.3   209  HIS209     -0.1241
     52  CA        -1.6490  -19.4010   58.3590 C.3   209  HIS209      0.1621
     53  C         -1.9410  -18.7710   57.0040 C.2   209  HIS209      0.2264
     54  O         -2.3270  -19.4720   56.0790 O.2   209  HIS209     -0.2867
     55  CB        -0.2840  -20.1040   58.3190 C.3   209  HIS209      0.0745
     56  CG         0.8790  -19.1750   58.4750 C.ar  209  HIS209      0.0817
     57  ND1        1.2140  -18.2320   57.5270 N.ar  209  HIS209     -0.2268
     58  CD2        1.7790  -19.0340   59.4770 C.ar  209  HIS209      0.1154
     59  CE1        2.2640  -17.5440   57.9420 C.ar  209  HIS209      0.1986
     60  NE2        2.6290  -18.0160   59.1200 N.ar  209  HIS209     -0.2212
     61  N          1.6940  -20.1650   54.7550 N.3   212  TRP212     -0.1241
     62  CA         2.3510  -21.4670   54.8380 C.3   212  TRP212      0.1605
     63  C          1.3690  -22.5330   55.3130 C.2   212  TRP212      0.2264
     64  O          0.6350  -22.3130   56.2710 O.2   212  TRP212     -0.2867
     65  CB         3.5170  -21.4040   55.8290 C.3   212  TRP212      0.0550
     66  CG         4.6590  -20.4780   55.4470 C.ar  212  TRP212      0.0003
     67  CD1        4.8300  -19.1760   55.8330 C.ar  212  TRP212      0.0946
     68  CD2        5.7970  -20.8040   54.6420 C.ar  212  TRP212      0.0152
     69  NE1        5.9960  -18.6720   55.3070 N.ar  212  TRP212     -0.2442
     70  CE2        6.6110  -19.6520   54.5730 C.ar  212  TRP212      0.0810
     71  CE3        6.2170  -21.9600   53.9720 C.ar  212  TRP212      0.0012
     72  CZ2        7.8110  -19.6220   53.8610 C.ar  212  TRP212      0.0191
     73  CZ3        7.4130  -21.9320   53.2720 C.ar  212  TRP212      0.0001
     74  CH2        8.1960  -20.7720   53.2200 C.ar  212  TRP212      0.0015
     75  N          1.2930  -25.7280   57.3000 N.3   214  MET214     -0.1245
     76  CA         2.1780  -26.3490   58.2850 C.3   214  MET214      0.1570
     77  C          1.4240  -27.2100   59.3010 C.2   214  MET214      0.2261
     78  O          0.1940  -27.2490   59.3200 O.2   214  MET214     -0.2867
     79  CB         2.9580  -25.2640   59.0350 C.3   214  MET214      0.0387
     80  CG         3.5270  -24.1690   58.1540 C.3   214  MET214      0.0595
     81  SD         4.5240  -22.9730   59.0840 S.3   214  MET214     -0.1393
     82  CE         3.2390  -22.0420   59.9260 C.3   214  MET214      0.0692
     83  N          3.3450  -25.5600   65.1070 N.3   218  ILE218     -0.1245
     84  CA         4.0490  -24.3930   64.5670 C.3   218  ILE218      0.1561
     85  C          3.0750  -23.3250   64.0540 C.2   218  ILE218      0.2260
     86  O          3.3800  -22.1360   64.0920 O.2   218  ILE218     -0.2867
     87  CB         5.0760  -24.7970   63.4600 C.3   218  ILE218      0.0252
     88  CG1        5.9580  -23.5970   63.0830 C.3   218  ILE218      0.0019
     89  CG2        4.3780  -25.3550   62.2340 C.3   218  ILE218      0.0019
     90  CD1        7.1240  -23.9540   62.1650 C.3   218  ILE218      0.0001
     91  N          3.0760  -19.5330   65.1970 N.3   222  SER222     -0.1217
     92  CA         3.1190  -18.4070   64.2680 C.3   222  SER222      0.1889
     93  C          2.0500  -17.3600   64.6110 C.2   222  SER222      0.2288
     94  O          2.2590  -16.1680   64.4080 O.2   222  SER222     -0.2866
     95  CB         2.9550  -18.8870   62.8250 C.3   222  SER222      0.2089
     96  OG         4.1360  -19.5320   62.3790 O.3   222  SER222     -0.2183
     97  N          3.4090  -15.5990   67.5660 N.3   225  MET225     -0.1245
     98  CA         4.8110  -15.2610   67.2690 C.3   225  MET225      0.1570
     99  C          5.8570  -15.8630   68.2220 C.2   225  MET225      0.2261
    100  O          7.0150  -15.4410   68.2320 O.2   225  MET225     -0.2867
    101  CB         5.0070  -13.7450   67.1050 C.3   225  MET225      0.0387
    102  CG         4.4650  -13.2170   65.7720 C.3   225  MET225      0.0595
    103  SD         4.9940  -11.5470   65.2760 S.3   225  MET225     -0.1393
    104  CE         5.9430  -10.9980   66.6460 C.3   225  MET225      0.0692
    105  N          6.8240  -18.7070   67.4930 N.3   227  ASN227     -0.1225
    106  CA         7.6510  -19.2810   66.4420 C.3   227  ASN227      0.1785
    107  C          8.8230  -18.3680   66.1260 C.2   227  ASN227      0.2597
    108  O          9.9540  -18.8300   66.0370 O.2   227  ASN227     -0.2718
    109  CB         6.8770  -19.5530   65.1540 C.3   227  ASN227      0.1169
    110  CG         7.7370  -20.2410   64.1120 C.2   227  ASN227      0.2627
    111  OD1        8.3470  -21.2850   64.3870 O.2   227  ASN227     -0.2716
    112  ND2        7.8290  -19.6460   62.9270 N.am  227  ASN227     -0.0877
    113  N          8.5600  -17.0750   65.9890 N.am  228  LYS228     -0.1980
    114  CA         9.6360  -16.1320   65.6850 C.3   228  LYS228      0.1596
    115  C         10.6190  -16.0160   66.8540 C.2   228  LYS228      0.2287
    116  O         11.8080  -15.8210   66.6390 O.2   228  LYS228     -0.2864
    117  CB         9.0860  -14.7620   65.2740 C.3   228  LYS228      0.0298
    118  CG         9.9640  -13.9990   64.2810 C.3   228  LYS228      0.0038
    119  CD        10.3030  -14.7910   63.0070 C.3   228  LYS228      0.0206
    120  CE         9.1110  -15.5800   62.4340 C.3   228  LYS228      0.1093
    121  NZ         9.4370  -16.1590   61.0920 N.3   228  LYS228     -0.1314
    122  N         12.7910  -19.0380   66.5950 N.3   231  GLU231     -0.1245
    123  CA        13.6570  -18.8820   65.4240 C.3   231  GLU231      0.1567
    124  C         14.7660  -17.8810   65.7020 C.2   231  GLU231      0.2260
    125  O         15.8500  -17.9890   65.1510 O.2   231  GLU231     -0.2867
    126  CB        12.8470  -18.4440   64.2050 C.3   231  GLU231      0.0388
    127  CG        12.0040  -19.5710   63.6350 C.3   231  GLU231      0.1160
    128  CD        11.2350  -19.1840   62.3980 C.2   231  GLU231      0.3649
    129  OE1       11.2890  -18.0030   61.9800 O.co2 231  GLU231     -0.2457
    130  OE2       10.5630  -20.0790   61.8430 O.co2 231  GLU231     -0.2457
    131  N          5.5470  -12.9390   53.1930 N.3   254  SER254     -0.1217
    132  CA         6.4280  -14.1210   53.3000 C.3   254  SER254      0.1889
    133  C          7.0930  -14.5320   51.9740 C.2   254  SER254      0.2288
    134  O          7.2600  -15.7210   51.7000 O.2   254  SER254     -0.2866
    135  CB         5.6740  -15.3220   53.8940 C.3   254  SER254      0.2089
    136  OG         5.2270  -15.0590   55.2090 O.3   254  SER254     -0.2183
    137  N          7.9920  -25.3870   51.4540 N.3   276  MET276     -0.1245
    138  CA         9.1510  -25.9290   52.1650 C.3   276  MET276      0.1570
    139  C          9.9790  -26.9270   51.3580 C.2   276  MET276      0.2261
    140  O         11.0860  -27.2370   51.7480 O.2   276  MET276     -0.2867
    141  CB         8.7250  -26.5620   53.4960 C.3   276  MET276      0.0387
    142  CG         8.4210  -25.5570   54.5940 C.3   276  MET276      0.0595
    143  SD         9.8040  -24.4880   54.9880 S.3   276  MET276     -0.1393
    144  CE        10.9190  -25.5910   55.6760 C.3   276  MET276      0.0692
@<TRIPOS>BOND
     1   139   140    2
     2   139   138    1
     3   137   138    1
     4   134   133    2
     5   133   132    1
     6   138   141    1
     7   131   132    1
     8    74    73   ar
     9    74    72   ar
    10    73    71   ar
    11   132   135    1
    12   141   142    1
    13    72    70   ar
    14   135   136    1
    15    71    68   ar
    16    23    22    1
    17    70    68   ar
    18    70    69   ar
    19   142   143    1
    20    68    66   ar
    21    61    62    1
    22    62    63    1
    23    62    65    1
    24   143   144    1
    25    21    20    2
    26    69    67   ar
    27    63    64    2
    28    66    65    1
    29    66    67   ar
    30    22    19    1
    31    19    20    1
    32    19    18    1
    33    54    53    2
    34    20    24   am
    35    53    52    1
    36    18    12   am
    37    27    26    2
    38    24    25    1
    39    75    76    1
    40    13    12    2
    41    25    26    1
    42    25    28    1
    43    57    59   ar
    44    57    56   ar
    45    12    11    1
    46    59    60   ar
    47    80    79    1
    48    80    81    1
    49    41    38    1
    50    41    42    1
    51    10    11    1
    52    76    79    1
    53    76    77    1
    54    55    52    1
    55    55    56    1
    56    52    51    1
    57    56    58   ar
    58    11    14    1
    59    32    30   ar
    60    38    37    1
    61    38    39    1
    62    29    28    1
    63    29    30    1
    64    30    31   ar
    65    81    82    1
    66    60    58   ar
    67    37    35   am
    68    40    39    2
    69    77    78    2
    70    34    35    1
    71    34    33    1
    72    35    36    2
    73    39    43   am
    74    14    15    1
    75    17    15   ar
    76    50    49    2
    77    15    16   ar
    78    43    44    1
    79    49    48    1
    80   121   120    1
    81    47    48    1
    82    47    45   am
    83   130   128   ar
    84    44    45    1
    85   129   128   ar
    86    90    88    1
    87    45    46    2
    88    89    87    1
    89    96    95    1
    90   128   127    1
    91   120   119    1
    92    95    92    1
    93   112   110   am
    94     9     8    1
    95   119   118    1
    96    88    87    1
    97    87    84    1
    98   127   126    1
    99     8     7    1
   100    85    86    2
   101    85    84    1
   102   110   111    2
   103   110   109    1
   104   126   123    1
   105    92    93    1
   106    92    91    1
   107   118   117    1
   108    94    93    2
   109    84    83    1
   110     7     6    1
   111   125   124    2
   112   109   106    1
   113     1     2    1
   114   117   114    1
   115   103   102    1
   116   103   104    1
   117   123   124    1
   118   123   122    1
   119     5     6    1
   120     5     2    1
   121   114   113    1
   122   114   115    1
   123   102   101    1
   124     2     3    1
   125   113   107   am
   126   108   107    2
   127   107   106    1
   128   106   105    1
   129   116   115    2
   130   101    98    1
   131    98    97    1
   132    98    99    1
   133     3     4    2
   134    99   100    2
