@<TRIPOS>MOLECULE
tmp/1q0rA01.pdb
 203 195 0 0 0
SMALL
GASTEIGER

@<TRIPOS>ATOM
      1  N          2.7690   12.3810    1.3640 N.3    29  MET29      -0.1230
      2  CA         2.7760   11.9470    2.7580 C.3    29  MET29       0.1702
      3  C          4.1300   12.1770    3.4170 C.2    29  MET29       0.2593
      4  O          5.1220   12.5070    2.7570 O.2    29  MET29      -0.2718
      5  CB         2.3980   10.4580    2.8760 C.3    29  MET29       0.0401
      6  CG         1.1270   10.1780    3.6660 C.3    29  MET29       0.0596
      7  SD         1.1440   10.6810    5.4120 S.3    29  MET29      -0.1393
      8  CE        -0.0940   11.9790    5.4220 C.3    29  MET29       0.0692
      9  N          4.1530   11.9990    4.7330 N.am   30  GLY30      -0.1942
     10  CA         5.3790   12.0280    5.5080 C.3    30  GLY30       0.2014
     11  C          6.2270   10.7840    5.3420 C.2    30  GLY30       0.2639
     12  O          5.9240    9.8900    4.5330 O.2    30  GLY30      -0.2714
     13  N          7.3040   10.7310    6.1170 N.am   31  GLY31      -0.1954
     14  CA         8.2560    9.6450    6.0490 C.3    31  GLY31       0.1869
     15  C          7.6870    8.3160    6.5080 C.2    31  GLY31       0.2309
     16  O          6.9390    8.2520    7.4830 O.2    31  GLY31      -0.2863
     17  N          5.4180    6.6020    5.4050 N.3    33  LEU33      -0.1231
     18  CA         3.9610    6.5530    5.3450 C.3    33  LEU33       0.1693
     19  C          3.4870    6.3690    3.9110 C.2    33  LEU33       0.2592
     20  O          3.8850    7.1210    3.0140 O.2    33  LEU33      -0.2718
     21  CB         3.3680    7.8280    5.9380 C.3    33  LEU33       0.0284
     22  CG         3.5620    7.9150    7.4530 C.3    33  LEU33       0.0019
     23  CD1        3.5820    9.3560    7.9390 C.3    33  LEU33       0.0001
     24  CD2        2.4740    7.1010    8.1700 C.3    33  LEU33       0.0001
     25  N          2.6380    5.3590    3.7130 N.am   34  SER34      -0.1952
     26  CA         2.0550    5.0650    2.4160 C.3    34  SER34       0.1924
     27  C          0.9290    6.0420    2.1180 C.2    34  SER34       0.2314
     28  O          0.6390    6.9300    2.9150 O.2    34  SER34      -0.2863
     29  CB         1.5160    3.6320    2.3970 C.3    34  SER34       0.2116
     30  OG         0.3270    3.5220    3.1630 O.3    34  SER34      -0.2180
     31  N         -2.0520    5.5550    2.4200 N.3    36  LEU36      -0.1231
     32  CA        -3.1060    5.4050    3.4290 C.3    36  LEU36       0.1693
     33  C         -2.8290    6.2100    4.7000 C.2    36  LEU36       0.2592
     34  O         -3.6610    6.2570    5.5930 O.2    36  LEU36      -0.2718
     35  CB        -3.3520    3.9220    3.7480 C.3    36  LEU36       0.0284
     36  CG        -4.2650    3.1710    2.7730 C.3    36  LEU36       0.0019
     37  CD1       -5.7060    3.6330    2.9040 C.3    36  LEU36       0.0001
     38  CD2       -3.8120    3.2990    1.3200 C.3    36  LEU36       0.0001
     39  N         -1.6630    6.8520    4.7690 N.am   37  GLY37      -0.1957
     40  CA        -1.4200    7.9100    5.7380 C.3    37  GLY37       0.1869
     41  C         -2.3340    9.1240    5.5640 C.2    37  GLY37       0.2309
     42  O         -2.5320    9.9060    6.4990 O.2    37  GLY37      -0.2863
     43  N         -5.9980    9.7310    5.2890 N.3    39  PRO39      -0.2116
     44  CA        -7.2630    9.0010    5.4330 C.3    39  PRO39       0.1372
     45  C         -8.1680    9.1780    4.2250 C.2    39  PRO39       0.2244
     46  O         -8.2570   10.2930    3.7280 O.2    39  PRO39      -0.2868
     47  CB        -7.8840    9.6310    6.6810 C.3    39  PRO39       0.0268
     48  CG        -6.7110   10.1160    7.4550 C.3    39  PRO39       0.0207
     49  CD        -5.7650   10.6460    6.4210 C.3    39  PRO39       0.0892
     50  N          3.1980   17.0430    3.6480 N.3   100  LEU100     -0.1231
     51  CA         2.9750   16.9130    5.0820 C.3   100  LEU100      0.1693
     52  C          4.1890   16.3080    5.7710 C.2   100  LEU100      0.2592
     53  O          4.7010   15.2730    5.3430 O.2   100  LEU100     -0.2718
     54  CB         1.7450   16.0460    5.3150 C.3   100  LEU100      0.0284
     55  CG         1.3470   15.8190    6.7680 C.3   100  LEU100      0.0019
     56  CD1       -0.1680   15.8220    6.9080 C.3   100  LEU100      0.0001
     57  CD2        1.9280   14.5330    7.3010 C.3   100  LEU100      0.0001
     58  N          4.6310   16.9550    6.8480 N.am  101  SER101     -0.1952
     59  CA         5.7080   16.4440    7.6930 C.3   101  SER101      0.1924
     60  C          7.0010   16.3510    6.8650 C.2   101  SER101      0.2314
     61  O          7.4040   17.3450    6.2600 O.2   101  SER101     -0.2863
     62  CB         5.2740   15.1210    8.3530 C.3   101  SER101      0.2116
     63  OG         6.0850   14.7830    9.4700 O.3   101  SER101     -0.2180
     64  N          2.8980   20.6830    8.9980 N.3   125  LEU125     -0.1245
     65  CA         3.5710   19.7740    9.9290 C.3   125  LEU125      0.1561
     66  C          5.0720   19.6050    9.6690 C.2   125  LEU125      0.2260
     67  O          5.6720   18.6040   10.0480 O.2   125  LEU125     -0.2867
     68  CB         2.8850   18.4000    9.9510 C.3   125  LEU125      0.0270
     69  CG         1.3790   18.3370   10.1990 C.3   125  LEU125      0.0019
     70  CD1        0.9710   16.8890   10.4830 C.3   125  LEU125      0.0001
     71  CD2        0.9230   19.2550   11.3170 C.3   125  LEU125      0.0001
     72  N          7.0950   13.8370   20.8390 N.3   157  PHE157     -0.1241
     73  CA         7.8530   13.1940   19.7690 C.3   157  PHE157      0.1605
     74  C          8.7450   12.0820   20.3190 C.2   157  PHE157      0.2264
     75  O          8.7610   10.9760   19.7890 O.2   157  PHE157     -0.2867
     76  CB         8.7060   14.2140   19.0110 C.3   157  PHE157      0.0534
     77  CG         9.5700   13.6030   17.9450 C.ar  157  PHE157     -0.0203
     78  CD1        9.0010   13.0260   16.8240 C.ar  157  PHE157     -0.0042
     79  CD2       10.9560   13.6030   18.0670 C.ar  157  PHE157     -0.0042
     80  CE1        9.7950   12.4670   15.8390 C.ar  157  PHE157     -0.0003
     81  CE2       11.7560   13.0400   17.0780 C.ar  157  PHE157     -0.0003
     82  CZ        11.1690   12.4760   15.9600 C.ar  157  PHE157     -0.0000
     83  N          7.2900    3.3170   19.6510 N.3   164  MET164     -0.1245
     84  CA         7.6400    2.6430   18.3990 C.3   164  MET164      0.1570
     85  C          8.7050    1.5540   18.6240 C.2   164  MET164      0.2261
     86  O          8.7980    0.6080   17.8440 O.2   164  MET164     -0.2867
     87  CB         8.1170    3.6600   17.3470 C.3   164  MET164      0.0387
     88  CG         6.9870    4.4790   16.7030 C.3   164  MET164      0.0595
     89  SD         7.4880    6.1180   16.0630 S.3   164  MET164     -0.1393
     90  CE         8.4180    5.6480   14.6350 C.3   164  MET164      0.0692
     91  N          0.0000    1.4500   16.9330 N.3   178  ARG178     -0.1245
     92  CA         0.0440    2.5650   15.9950 C.3   178  ARG178      0.1563
     93  C         -0.9210    3.6660   16.4220 C.2   178  ARG178      0.2260
     94  O         -0.5700    4.8440   16.4010 O.2   178  ARG178     -0.2867
     95  CB        -0.2830    2.0910   14.5810 C.3   178  ARG178      0.0307
     96  CG         0.7590    1.1990   13.9550 C.3   178  ARG178      0.0489
     97  CD         0.3910    0.8090   12.5520 C.3   178  ARG178      0.2205
     98  NE         1.2910   -0.1710   11.9660 N.pl3 178  ARG178     -0.0865
     99  CZ         1.3230   -0.4500   10.6730 C.cat 178  ARG178      0.5346
    100  NH1        0.5210    0.1880    9.8290 N.pl3 178  ARG178      0.1354
    101  NH2        2.1740   -1.3580   10.2160 N.pl3 178  ARG178      0.1354
    102  N          0.4550    5.6860   19.2010 N.3   181  LYS181     -0.1231
    103  CA         1.4510    6.6240   18.6790 C.3   181  LYS181      0.1693
    104  C          0.7710    7.8820   18.1590 C.2   181  LYS181      0.2592
    105  O          1.1920    8.9860   18.4790 O.2   181  LYS181     -0.2718
    106  CB         2.2680    5.9610   17.5570 C.3   181  LYS181      0.0285
    107  CG         3.1790    6.8930   16.7700 C.3   181  LYS181      0.0035
    108  CD         3.7980    6.1860   15.5640 C.3   181  LYS181      0.0206
    109  CE         2.8300    6.0690   14.3980 C.3   181  LYS181      0.1093
    110  NZ         3.4130    5.2880   13.2680 N.3   181  LYS181     -0.1314
    111  N         -0.2800    7.7220   17.3590 N.am  182  TRP182     -0.1976
    112  CA        -0.9750    8.8780   16.7880 C.3   182  TRP182      0.1640
    113  C         -1.6540    9.7060   17.8630 C.2   182  TRP182      0.2290
    114  O         -1.7210   10.9180   17.7520 O.2   182  TRP182     -0.2864
    115  CB        -2.0050    8.4540   15.7370 C.3   182  TRP182      0.0576
    116  CG        -1.3760    7.8700   14.5270 C.ar  182  TRP182      0.0006
    117  CD1       -1.5250    6.5970   14.0710 C.ar  182  TRP182      0.0946
    118  CD2       -0.4770    8.5190   13.6280 C.ar  182  TRP182      0.0152
    119  NE1       -0.7720    6.4130   12.9380 N.ar  182  TRP182     -0.2442
    120  CE2       -0.1180    7.5770   12.6430 C.ar  182  TRP182      0.0810
    121  CE3        0.0690    9.8050   13.5540 C.ar  182  TRP182      0.0012
    122  CZ2        0.7590    7.8780   11.6000 C.ar  182  TRP182      0.0191
    123  CZ3        0.9380   10.1040   12.5210 C.ar  182  TRP182      0.0001
    124  CH2        1.2750    9.1420   11.5560 C.ar  182  TRP182      0.0015
    125  N          0.9890   11.9000   19.4060 N.3   185  LEU185     -0.1245
    126  CA         1.3930   12.9690   18.4850 C.3   185  LEU185      0.1561
    127  C          0.2890   14.0000   18.2340 C.2   185  LEU185      0.2260
    128  O          0.5730   15.1820   18.0680 O.2   185  LEU185     -0.2867
    129  CB         1.8730   12.3810   17.1570 C.3   185  LEU185      0.0270
    130  CG         3.1830   11.5890   17.2260 C.3   185  LEU185      0.0019
    131  CD1        3.4790   10.9730   15.8730 C.3   185  LEU185      0.0001
    132  CD2        4.3570   12.4560   17.6730 C.3   185  LEU185      0.0001
    133  N         -8.9910    6.0330   13.9500 N.3   197  TYR197     -0.1241
    134  CA        -7.5740    5.8510   13.6370 C.3   197  TYR197      0.1605
    135  C         -7.2160    4.3730   13.5200 C.2   197  TYR197      0.2264
    136  O         -6.3800    4.0090   12.7020 O.2   197  TYR197     -0.2867
    137  CB        -6.6530    6.5820   14.6350 C.3   197  TYR197      0.0534
    138  CG        -5.8400    7.6570   13.9570 C.ar  197  TYR197     -0.0201
    139  CD1       -6.1640    9.0040   14.0920 C.ar  197  TYR197     -0.0009
    140  CD2       -4.7810    7.3210   13.1310 C.ar  197  TYR197     -0.0009
    141  CE1       -5.4230    9.9890   13.4510 C.ar  197  TYR197      0.0417
    142  CE2       -4.0410    8.2890   12.4860 C.ar  197  TYR197      0.0417
    143  CZ        -4.3710    9.6210   12.6430 C.ar  197  TYR197      0.1957
    144  OH        -3.6470   10.5860   11.9970 O.3   197  TYR197     -0.2866
    145  N         -8.2610    3.3930   10.1030 N.3   200  TRP200     -0.1227
    146  CA        -7.3040    3.9050    9.1310 C.3   200  TRP200      0.1737
    147  C         -6.0300    3.0540    9.0820 C.2   200  TRP200      0.2595
    148  O         -5.4900    2.8230    8.0030 O.2   200  TRP200     -0.2718
    149  CB        -6.9800    5.3820    9.4090 C.3   200  TRP200      0.0564
    150  CG        -8.1610    6.2920    9.1790 C.ar  200  TRP200      0.0003
    151  CD1       -9.2410    6.0490    8.3710 C.ar  200  TRP200      0.0946
    152  CD2       -8.3930    7.5730    9.7760 C.ar  200  TRP200      0.0152
    153  NE1      -10.1240    7.0990    8.4300 N.ar  200  TRP200     -0.2442
    154  CE2       -9.6300    8.0490    9.2840 C.ar  200  TRP200      0.0810
    155  CE3       -7.6820    8.3700   10.6810 C.ar  200  TRP200      0.0012
    156  CZ2      -10.1640    9.2850    9.6590 C.ar  200  TRP200      0.0191
    157  CZ3       -8.2080    9.5950   11.0470 C.ar  200  TRP200      0.0001
    158  CH2       -9.4400   10.0400   10.5430 C.ar  200  TRP200      0.0015
    159  N         -5.5650    2.5740   10.2360 N.am  201  GLU201     -0.1979
    160  CA        -4.3900    1.7070   10.2790 C.3   201  GLU201      0.1602
    161  C         -4.6970    0.3000    9.7730 C.2   201  GLU201      0.2287
    162  O         -3.8520   -0.3250    9.1410 O.2   201  GLU201     -0.2864
    163  CB        -3.7830    1.6650   11.6910 C.3   201  GLU201      0.0415
    164  CG        -3.0310    2.9420   12.0460 C.3   201  GLU201      0.1163
    165  CD        -1.7110    3.1040   11.3050 C.2   201  GLU201      0.3649
    166  OE1       -1.4390    2.3550   10.3410 O.co2 201  GLU201     -0.2457
    167  OE2       -0.9240    3.9960   11.6840 O.co2 201  GLU201     -0.2457
    168  N         -4.3790    0.6840    6.1570 N.3   204  ALA204     -0.1245
    169  CA        -2.9680    0.8110    5.7990 C.3   204  ALA204      0.1562
    170  C         -2.2500   -0.5370    5.8040 C.2   204  ALA204      0.2260
    171  O         -1.4050   -0.7970    4.9560 O.2   204  ALA204     -0.2867
    172  CB        -2.2700    1.7780    6.7390 C.3   204  ALA204      0.0290
    173  N          6.4260   18.0540   16.8570 N.3   249  ILE249     -0.1245
    174  CA         7.6320   17.7610   16.0850 C.3   249  ILE249      0.1561
    175  C          8.2190   19.0290   15.4700 C.2   249  ILE249      0.2260
    176  O          9.4330   19.2240   15.5060 O.2   249  ILE249     -0.2867
    177  CB         7.3610   16.6900   14.9960 C.3   249  ILE249      0.0252
    178  CG1        6.6010   15.5030   15.6060 C.3   249  ILE249      0.0019
    179  CG2        8.6810   16.2420   14.3770 C.3   249  ILE249      0.0019
    180  CD1        6.3760   14.3260   14.6620 C.3   249  ILE249      0.0001
    181  N          0.3170   16.6710   15.5830 N.3   275  HIS275     -0.1226
    182  CA         0.9860   16.0580   14.4270 C.3   275  HIS275      0.1752
    183  C          0.2800   14.7690   13.9950 C.2   275  HIS275      0.2596
    184  O          0.8450   13.6750   14.0540 O.2   275  HIS275     -0.2718
    185  CB         2.4770   15.8060   14.7240 C.3   275  HIS275      0.0759
    186  CG         3.3170   15.7240   13.4920 C.ar  275  HIS275      0.0818
    187  ND1        4.0460   16.7930   13.0220 N.ar  275  HIS275     -0.2268
    188  CD2        3.5230   14.7090   12.6180 C.ar  275  HIS275      0.1154
    189  CE1        4.6670   16.4380   11.9100 C.ar  275  HIS275      0.1986
    190  NE2        4.3650   15.1810   11.6430 N.ar  275  HIS275     -0.2212
    191  N         -0.9630   14.9380   13.5560 N.am  276  ALA276     -0.1966
    192  CA        -1.8460   13.8330   13.1940 C.3   276  ALA276      0.1728
    193  C         -3.0870   14.3920   12.5160 C.2   276  ALA276      0.2616
    194  O         -3.3410   15.5950   12.5620 O.2   276  ALA276     -0.2715
    195  CB        -2.2470   13.0200   14.4280 C.3   276  ALA276      0.0334
    196  N         -3.8770   13.5100   11.9150 N.am  277  LEU277     -0.1977
    197  CA        -5.0240   13.9230   11.1100 C.3   277  LEU277      0.1596
    198  C         -6.3370   13.3120   11.6000 C.2   277  LEU277      0.2287
    199  O         -7.0400   12.6380   10.8390 O.2   277  LEU277     -0.2864
    200  CB        -4.7880   13.5640    9.6320 C.3   277  LEU277      0.0297
    201  CG        -3.5510   14.1810    8.9650 C.3   277  LEU277      0.0022
    202  CD1       -3.3550   13.5660    7.5890 C.3   277  LEU277      0.0001
    203  CD2       -3.6930   15.6860    8.8520 C.3   277  LEU277      0.0001
@<TRIPOS>BOND
     1    38    36    1
     2     1     2    1
     3    27    26    1
     4    27    28    2
     5    29    26    1
     6    29    30    1
     7    26    25    1
     8    31    32    1
     9     4     3    2
    10     2     5    1
    11     2     3    1
    12    36    37    1
    13    36    35    1
    14     5     6    1
    15    20    19    2
    16     3     9   am
    17    32    35    1
    18    32    33    1
    19    50    51    1
    20     6     7    1
    21    25    19   am
    22    46    45    2
    23    19    18    1
    24    45    44    1
    25    12    11    2
    26    33    39   am
    27    33    34    2
    28     9    10    1
    29    39    40    1
    30   171   170    2
    31    51    54    1
    32    51    52    1
    33    43    44    1
    34    43    49    1
    35    54    55    1
    36    11    10    1
    37    11    13   am
    38    53    52    2
    39    18    17    1
    40    18    21    1
    41     7     8    1
    42    44    47    1
    43    41    40    1
    44    41    42    2
    45    52    58   am
    46   169   170    1
    47   169   168    1
    48   169   172    1
    49    21    22    1
    50    14    13    1
    51    14    15    1
    52    61    60    2
    53    49    48    1
    54    15    16    2
    55    47    48    1
    56    55    56    1
    57    55    57    1
    58    58    59    1
    59    60    59    1
    60    22    23    1
    61    22    24    1
    62   202   201    1
    63    59    62    1
    64   148   147    2
    65    62    63    1
    66   151   153   ar
    67   151   150   ar
    68   153   154   ar
    69   203   201    1
    70   201   200    1
    71    64    65    1
    72   147   146    1
    73   147   159   am
    74   146   149    1
    75   146   145    1
    76   162   161    2
    77   150   149    1
    78   150   152   ar
    79   154   156   ar
    80   154   152   ar
    81   200   197    1
    82   156   158   ar
    83    66    65    1
    84    66    67    2
    85   161   160    1
    86   152   155   ar
    87   100    99    1
    88    65    68    1
    89    68    69    1
    90    69    70    1
    91    69    71    1
    92   101    99    1
    93   159   160    1
    94   160   163    1
    95   166   165   ar
    96   158   157   ar
    97    99    98    2
    98   155   157   ar
    99   199   198    2
   100   197   198    1
   101   197   196    1
   102   165   167   ar
   103   165   164    1
   104   124   122   ar
   105   124   123   ar
   106   122   120   ar
   107   190   189   ar
   108   190   188   ar
   109   163   164    1
   110   189   187   ar
   111   196   193   am
   112    98    97    1
   113   144   143    1
   114   142   143   ar
   115   142   140   ar
   116   193   194    2
   117   193   192    1
   118   123   121   ar
   119    97    96    1
   120   188   186   ar
   121   120   119   ar
   122   120   118   ar
   123   143   141   ar
   124   136   135    2
   125   119   117   ar
   126   187   186   ar
   127   140   138   ar
   128   192   191    1
   129   192   195    1
   130   110   109    1
   131   141   139   ar
   132   186   185    1
   133   135   134    1
   134   121   118   ar
   135   191   183   am
   136   118   116   ar
   137   134   133    1
   138   134   137    1
   139    96    95    1
   140   138   139   ar
   141   138   137    1
   142   183   184    2
   143   183   182    1
   144   117   116   ar
   145   179   177    1
   146   109   108    1
   147   182   185    1
   148   182   181    1
   149   116   115    1
   150    95    92    1
   151    90    89    1
   152   180   178    1
   153   177   178    1
   154   177   174    1
   155   175   176    2
   156   175   174    1
   157   108   107    1
   158   115   112    1
   159    80    82   ar
   160    80    78   ar
   161   131   130    1
   162    82    81   ar
   163    92    93    1
   164    92    91    1
   165    89    88    1
   166   174   173    1
   167    94    93    2
   168    88    87    1
   169   107   106    1
   170   112   111    1
   171   112   113    1
   172    78    77   ar
   173    81    79   ar
   174   129   130    1
   175   129   126    1
   176   130   132    1
   177    87    84    1
   178   111   104   am
   179   106   103    1
   180   114   113    2
   181    86    85    2
   182    77    79   ar
   183    77    76    1
   184   128   127    2
   185   104   105    2
   186   104   103    1
   187   127   126    1
   188    84    85    1
   189    84    83    1
   190   126   125    1
   191   103   102    1
   192    76    73    1
   193    73    74    1
   194    73    72    1
   195    75    74    2
