@<TRIPOS>MOLECULE
tmp/1q0rA00.pdb
 205 194 0 0 0
SMALL
GASTEIGER

@<TRIPOS>ATOM
      1  N          7.3040   10.7310    6.1170 N.3    31  GLY31      -0.1210
      2  CA         8.2560    9.6450    6.0490 C.3    31  GLY31       0.1956
      3  C          7.6870    8.3160    6.5080 C.2    31  GLY31       0.2611
      4  O          6.9390    8.2520    7.4830 O.2    31  GLY31      -0.2717
      5  N          8.0610    7.2540    5.7950 N.am   32  ASN32      -0.1974
      6  CA         7.6420    5.8890    6.0780 C.3    32  ASN32       0.1688
      7  C          6.1320    5.6780    6.0470 C.2    32  ASN32       0.2292
      8  O          5.6270    4.6690    6.5530 O.2    32  ASN32      -0.2864
      9  CB         8.2340    5.4210    7.4130 C.3    32  ASN32       0.1181
     10  CG         9.7580    5.3620    7.3910 C.2    32  ASN32       0.2629
     11  OD1       10.4260    5.8960    8.2840 O.2    32  ASN32      -0.2716
     12  ND2       10.3080    4.7220    6.3790 N.am   32  ASN32      -0.0877
     13  N         16.2560   12.9200   -1.2150 N.3    76  PHE76      -0.1241
     14  CA        15.0660   13.7320   -1.4450 C.3    76  PHE76       0.1605
     15  C         14.9000   14.1270   -2.9060 C.2    76  PHE76       0.2264
     16  O         13.7930   14.4150   -3.3400 O.2    76  PHE76      -0.2867
     17  CB        15.0720   14.9550   -0.5280 C.3    76  PHE76       0.0534
     18  CG        14.6300   14.6370    0.8720 C.ar   76  PHE76      -0.0203
     19  CD1       15.5050   14.0450    1.7810 C.ar   76  PHE76      -0.0042
     20  CD2       13.3220   14.8720    1.2640 C.ar   76  PHE76      -0.0042
     21  CE1       15.0850   13.7290    3.0650 C.ar   76  PHE76      -0.0003
     22  CE2       12.8970   14.5620    2.5530 C.ar   76  PHE76      -0.0003
     23  CZ        13.7770   13.9880    3.4550 C.ar   76  PHE76      -0.0000
     24  N          4.6310   16.9550    6.8480 N.3   101  SER101     -0.1202
     25  CA         5.7080   16.4440    7.6930 C.3   101  SER101      0.2020
     26  C          7.0010   16.3510    6.8650 C.2   101  SER101      0.2618
     27  O          7.4040   17.3450    6.2600 O.2   101  SER101     -0.2717
     28  CB         5.2740   15.1210    8.3530 C.3   101  SER101      0.2103
     29  OG         6.0850   14.7830    9.4700 O.3   101  SER101     -0.2182
     30  N          7.6430   15.1870    6.8050 N.am  102  MET102     -0.1979
     31  CA         8.8030   15.0230    5.9230 C.3   102  MET102      0.1605
     32  C          8.4350   15.3110    4.4630 C.2   102  MET102      0.2287
     33  O          9.2900   15.6810    3.6610 O.2   102  MET102     -0.2864
     34  CB         9.3840   13.6150    6.0440 C.3   102  MET102      0.0413
     35  CG        10.7870   13.4880    5.4630 C.3   102  MET102      0.0598
     36  SD        11.3590   11.7800    5.4780 S.3   102  MET102     -0.1393
     37  CE        10.7630   11.2320    3.8960 C.3   102  MET102      0.0692
     38  N          9.3070   18.7360    3.2730 N.3   105  THR105     -0.1218
     39  CA        10.6880   18.8010    2.8000 C.3   105  THR105      0.1862
     40  C         10.7640   18.3460    1.3400 C.2   105  THR105      0.2287
     41  O         11.3840   19.0060    0.5110 O.2   105  THR105     -0.2866
     42  CB        11.5910   17.9440    3.7030 C.3   105  THR105      0.1770
     43  OG1       11.5250   18.4410    5.0450 O.3   105  THR105     -0.2211
     44  CG2       13.0590   18.0750    3.3240 C.3   105  THR105      0.0375
     45  N          2.8980   20.6830    8.9980 N.3   125  LEU125     -0.1231
     46  CA         3.5710   19.7740    9.9290 C.3   125  LEU125      0.1693
     47  C          5.0720   19.6050    9.6690 C.2   125  LEU125      0.2593
     48  O          5.6720   18.6040   10.0480 O.2   125  LEU125     -0.2718
     49  CB         2.8850   18.4000    9.9510 C.3   125  LEU125      0.0284
     50  CG         1.3790   18.3370   10.1990 C.3   125  LEU125      0.0019
     51  CD1        0.9710   16.8890   10.4830 C.3   125  LEU125      0.0001
     52  CD2        0.9230   19.2550   11.3170 C.3   125  LEU125      0.0001
     53  N          5.6780   20.6120    9.0600 N.am  126  GLY126     -0.1942
     54  CA         7.0780   20.5500    8.6980 C.3   126  GLY126      0.2014
     55  C          7.8000   21.8570    8.9260 C.2   126  GLY126      0.2639
     56  O          7.3580   22.7140    9.6890 O.2   126  GLY126     -0.2714
     57  N          8.9350   22.0010    8.2600 N.am  127  GLY127     -0.1939
     58  CA         9.7380   23.1980    8.4090 C.3   127  GLY127      0.2014
     59  C         10.7210   23.3660    7.2770 C.2   127  GLY127      0.2639
     60  O         10.7780   22.5530    6.3640 O.2   127  GLY127     -0.2714
     61  N         11.5050   24.4340    7.3530 N.am  128  GLY128     -0.1954
     62  CA        12.3590   24.8460    6.2510 C.3   128  GLY128      0.1869
     63  C         13.5560   23.9490    6.0020 C.2   128  GLY128      0.2309
     64  O         14.0170   23.2480    6.8910 O.2   128  GLY128     -0.2863
     65  N         16.5140   23.8950    8.3760 N.3   131  ILE131     -0.1245
     66  CA        16.3910   23.2610    9.6860 C.3   131  ILE131      0.1561
     67  C         17.0670   21.8940    9.6300 C.2   131  ILE131      0.2260
     68  O         16.6310   21.0030    8.8920 O.2   131  ILE131     -0.2867
     69  CB        14.9110   23.0930   10.0860 C.3   131  ILE131      0.0252
     70  CG1       14.1560   24.4340   10.0310 C.3   131  ILE131      0.0019
     71  CG2       14.8090   22.4330   11.4610 C.3   131  ILE131      0.0019
     72  CD1       14.7560   25.5640   10.8440 C.3   131  ILE131      0.0001
     73  N         17.1510   18.9480   10.9010 N.3   133  PHE133     -0.1227
     74  CA        16.1950   18.2350   11.7400 C.3   133  PHE133      0.1736
     75  C         16.7750   17.0220   12.4580 C.2   133  PHE133      0.2595
     76  O         16.5520   16.8530   13.6510 O.2   133  PHE133     -0.2718
     77  CB        14.9880   17.8250   10.8920 C.3   133  PHE133      0.0547
     78  CG        13.9470   17.0470   11.6380 C.ar  133  PHE133     -0.0202
     79  CD1       13.1190   17.6750   12.5570 C.ar  133  PHE133     -0.0042
     80  CD2       13.7770   15.6870   11.4050 C.ar  133  PHE133     -0.0042
     81  CE1       12.1440   16.9540   13.2420 C.ar  133  PHE133     -0.0003
     82  CE2       12.8040   14.9670   12.0790 C.ar  133  PHE133     -0.0003
     83  CZ        11.9860   15.6040   13.0000 C.ar  133  PHE133     -0.0000
     84  N         17.5140   16.1790   11.7420 N.am  134  ASP134     -0.1974
     85  CA        18.0910   14.9800   12.3560 C.3   134  ASP134      0.1709
     86  C         19.0920   15.3700   13.4300 C.2   134  ASP134      0.2293
     87  O         19.1180   14.7720   14.5030 O.2   134  ASP134     -0.2864
     88  CB        18.7740   14.0840   11.3160 C.3   134  ASP134      0.1436
     89  CG        17.7930   13.4530   10.3510 C.2   134  ASP134      0.3671
     90  OD1       16.5970   13.3780   10.6850 O.co2 134  ASP134     -0.2456
     91  OD2       18.1250   13.0210    9.2270 O.co2 134  ASP134     -0.2456
     92  N         17.2680   16.4570   16.5910 N.3   137  ILE137     -0.1245
     93  CA        16.7630   15.3800   17.4440 C.3   137  ILE137      0.1561
     94  C         17.8730   15.0030   18.4180 C.2   137  ILE137      0.2260
     95  O         17.6450   14.8700   19.6150 O.2   137  ILE137     -0.2867
     96  CB        16.3420   14.1480   16.6180 C.3   137  ILE137      0.0252
     97  CG1       15.1280   14.4650   15.7340 C.3   137  ILE137      0.0019
     98  CG2       16.0130   12.9640   17.5420 C.3   137  ILE137      0.0019
     99  CD1       14.8400   13.3960   14.6990 C.3   137  ILE137      0.0001
    100  N          7.0950   13.8370   20.8390 N.3   157  PHE157     -0.1241
    101  CA         7.8530   13.1940   19.7690 C.3   157  PHE157      0.1605
    102  C          8.7450   12.0820   20.3190 C.2   157  PHE157      0.2264
    103  O          8.7610   10.9760   19.7890 O.2   157  PHE157     -0.2867
    104  CB         8.7060   14.2140   19.0110 C.3   157  PHE157      0.0534
    105  CG         9.5700   13.6030   17.9450 C.ar  157  PHE157     -0.0203
    106  CD1        9.0010   13.0260   16.8240 C.ar  157  PHE157     -0.0042
    107  CD2       10.9560   13.6030   18.0670 C.ar  157  PHE157     -0.0042
    108  CE1        9.7950   12.4670   15.8390 C.ar  157  PHE157     -0.0003
    109  CE2       11.7560   13.0400   17.0780 C.ar  157  PHE157     -0.0003
    110  CZ        11.1690   12.4760   15.9600 C.ar  157  PHE157     -0.0000
    111  N          8.5580    7.9010   19.7720 N.3   161  LEU161     -0.1245
    112  CA         9.7000    7.0820   19.3650 C.3   161  LEU161      0.1561
    113  C          9.8980    5.9210   20.3370 C.2   161  LEU161      0.2260
    114  O         10.2570    4.8230   19.9260 O.2   161  LEU161     -0.2867
    115  CB        10.9870    7.9200   19.2900 C.3   161  LEU161      0.0270
    116  CG        11.1360    8.9350   18.1530 C.3   161  LEU161      0.0019
    117  CD1       12.4940    9.6200   18.2520 C.3   161  LEU161      0.0001
    118  CD2       10.9670    8.2810   16.7900 C.3   161  LEU161      0.0001
    119  N          7.2900    3.3170   19.6510 N.3   164  MET164     -0.1245
    120  CA         7.6400    2.6430   18.3990 C.3   164  MET164      0.1570
    121  C          8.7050    1.5540   18.6240 C.2   164  MET164      0.2261
    122  O          8.7980    0.6080   17.8440 O.2   164  MET164     -0.2867
    123  CB         8.1170    3.6600   17.3470 C.3   164  MET164      0.0387
    124  CG         6.9870    4.4790   16.7030 C.3   164  MET164      0.0595
    125  SD         7.4880    6.1180   16.0630 S.3   164  MET164     -0.1393
    126  CE         8.4180    5.6480   14.6350 C.3   164  MET164      0.0692
    127  N          0.9890   11.9000   19.4060 N.3   185  LEU185     -0.1245
    128  CA         1.3930   12.9690   18.4850 C.3   185  LEU185      0.1561
    129  C          0.2890   14.0000   18.2340 C.2   185  LEU185      0.2260
    130  O          0.5730   15.1820   18.0680 O.2   185  LEU185     -0.2867
    131  CB         1.8730   12.3810   17.1570 C.3   185  LEU185      0.0270
    132  CG         3.1830   11.5890   17.2260 C.3   185  LEU185      0.0019
    133  CD1        3.4790   10.9730   15.8730 C.3   185  LEU185      0.0001
    134  CD2        4.3570   12.4560   17.6730 C.3   185  LEU185      0.0001
    135  N         13.1080    5.1320    5.0990 N.3   218  HIS218     -0.1226
    136  CA        13.3140    6.5800    5.1310 C.3   218  HIS218      0.1752
    137  C         14.1330    7.0640    6.3380 C.2   218  HIS218      0.2596
    138  O         14.5960    8.1990    6.3430 O.2   218  HIS218     -0.2718
    139  CB        11.9780    7.3260    5.0430 C.3   218  HIS218      0.0759
    140  CG        11.2010    7.0310    3.7970 C.ar  218  HIS218      0.0818
    141  ND1       11.6520    6.1790    2.8150 N.ar  218  HIS218     -0.2268
    142  CD2        9.9890    7.4660    3.3840 C.ar  218  HIS218      0.1154
    143  CE1       10.7500    6.1060    1.8500 C.ar  218  HIS218      0.1986
    144  NE2        9.7320    6.8780    2.1720 N.ar  218  HIS218     -0.2212
    145  N         14.3360    6.2090    7.3400 N.am  219  TYR219     -0.1976
    146  CA        15.2660    6.5300    8.4320 C.3   219  TYR219      0.1639
    147  C         16.7180    6.6310    7.9550 C.2   219  TYR219      0.2290
    148  O         17.5630    7.1880    8.6540 O.2   219  TYR219     -0.2864
    149  CB        15.1810    5.4990    9.5660 C.3   219  TYR219      0.0560
    150  CG        13.8270    5.4470   10.2210 C.ar  219  TYR219     -0.0198
    151  CD1       13.2640    6.5840   10.7920 C.ar  219  TYR219     -0.0009
    152  CD2       13.0930    4.2660   10.2530 C.ar  219  TYR219     -0.0009
    153  CE1       12.0140    6.5460   11.3860 C.ar  219  TYR219      0.0417
    154  CE2       11.8410    4.2180   10.8400 C.ar  219  TYR219      0.0417
    155  CZ        11.3050    5.3580   11.4040 C.ar  219  TYR219      0.1957
    156  OH        10.0570    5.3060   11.9850 O.3   219  TYR219     -0.2866
    157  N         17.6150    8.1480    5.1010 N.3   221  LEU221     -0.1245
    158  CA        17.7540    9.3250    4.2470 C.3   221  LEU221      0.1561
    159  C         18.6480   10.3870    4.8770 C.2   221  LEU221      0.2260
    160  O         18.7420   10.4960    6.0990 O.2   221  LEU221     -0.2867
    161  CB        16.3880    9.9600    3.9740 C.3   221  LEU221      0.0270
    162  CG        15.3970    9.1550    3.1370 C.3   221  LEU221      0.0019
    163  CD1       14.0050    9.7610    3.2740 C.3   221  LEU221      0.0001
    164  CD2       15.8240    9.1000    1.6810 C.3   221  LEU221      0.0001
    165  N         19.1130   14.5880    4.6420 N.3   223  LEU223     -0.1245
    166  CA        18.3960   15.8000    4.2600 C.3   223  LEU223      0.1561
    167  C         19.1930   16.6040    3.2490 C.2   223  LEU223      0.2260
    168  O         20.4190   16.5220    3.2270 O.2   223  LEU223     -0.2867
    169  CB        18.1400   16.6680    5.4930 C.3   223  LEU223      0.0270
    170  CG        17.1940   16.0620    6.5320 C.3   223  LEU223      0.0019
    171  CD1       17.2460   16.8460    7.8280 C.3   223  LEU223      0.0001
    172  CD2       15.7770   16.0020    5.9930 C.3   223  LEU223      0.0001
    173  N          6.4260   18.0540   16.8570 N.3   249  ILE249     -0.1231
    174  CA         7.6320   17.7610   16.0850 C.3   249  ILE249      0.1692
    175  C          8.2190   19.0290   15.4700 C.2   249  ILE249      0.2591
    176  O          9.4330   19.2240   15.5060 O.2   249  ILE249     -0.2718
    177  CB         7.3610   16.6900   14.9960 C.3   249  ILE249      0.0266
    178  CG1        6.6010   15.5030   15.6060 C.3   249  ILE249      0.0019
    179  CG2        8.6810   16.2420   14.3770 C.3   249  ILE249      0.0020
    180  CD1        6.3760   14.3260   14.6620 C.3   249  ILE249      0.0001
    181  N          7.3630   19.8770   14.9030 N.am  250  ALA250     -0.1980
    182  CA         7.7720   21.1490   14.3050 C.3   250  ALA250      0.1597
    183  C          6.9410   22.2720   14.9110 C.2   250  ALA250      0.2287
    184  O          6.0420   22.8200   14.2630 O.2   250  ALA250     -0.2864
    185  CB         7.5980   21.1100   12.7970 C.3   250  ALA250      0.0319
    186  N          7.9820   27.3420   13.5410 N.3   254  HIS254     -0.1241
    187  CA         8.5320   26.7100   12.3360 C.3   254  HIS254      0.1621
    188  C          7.8180   27.1360   11.0530 C.2   254  HIS254      0.2264
    189  O          8.4350   27.1940    9.9990 O.2   254  HIS254     -0.2867
    190  CB         8.5120   25.2000   12.4430 C.3   254  HIS254      0.0745
    191  CG         9.7620   24.6330   13.0300 C.ar  254  HIS254      0.0817
    192  ND1       10.9680   24.6600   12.3680 N.ar  254  HIS254     -0.2268
    193  CD2       10.0060   24.0670   14.2360 C.ar  254  HIS254      0.1154
    194  CE1       11.8910   24.0880   13.1210 C.ar  254  HIS254      0.1986
    195  NE2       11.3350   23.7260   14.2620 N.ar  254  HIS254     -0.2212
    196  N          0.3170   16.6710   15.5830 N.3   275  HIS275     -0.1241
    197  CA         0.9860   16.0580   14.4270 C.3   275  HIS275      0.1621
    198  C          0.2800   14.7690   13.9950 C.2   275  HIS275      0.2264
    199  O          0.8450   13.6750   14.0540 O.2   275  HIS275     -0.2867
    200  CB         2.4770   15.8060   14.7240 C.3   275  HIS275      0.0745
    201  CG         3.3170   15.7240   13.4920 C.ar  275  HIS275      0.0817
    202  ND1        4.0460   16.7930   13.0220 N.ar  275  HIS275     -0.2268
    203  CD2        3.5230   14.7090   12.6180 C.ar  275  HIS275      0.1154
    204  CE1        4.6670   16.4380   11.9100 C.ar  275  HIS275      0.1986
    205  NE2        4.3650   15.1810   11.6430 N.ar  275  HIS275     -0.2212
@<TRIPOS>BOND
     1    16    15    2
     2    15    14    1
     3    14    13    1
     4    14    17    1
     5    17    18    1
     6    41    40    2
     7    18    20   ar
     8    18    19   ar
     9    20    22   ar
    10    40    39    1
    11   164   162    1
    12    19    21   ar
    13   143   144   ar
    14   143   141   ar
    15   144   142   ar
    16    22    23   ar
    17    39    38    1
    18    39    42    1
    19   141   140   ar
    20    21    23   ar
    21   162   163    1
    22   162   161    1
    23   168   167    2
    24   167   166    1
    25    44    42    1
    26   142   140   ar
    27    33    32    2
    28    42    43    1
    29   140   139    1
    30    37    36    1
    31   161   158    1
    32   158   159    1
    33   158   157    1
    34   166   165    1
    35   166   169    1
    36    32    31    1
    37   159   160    2
    38   139   136    1
    39   135   136    1
    40   136   137    1
    41    35    36    1
    42    35    34    1
    43   169   170    1
    44     5     6    1
    45     5     3   am
    46    31    34    1
    47    31    30    1
    48   172   170    1
    49    63    62    1
    50    63    64    2
    51     7     6    1
    52     7     8    2
    53     2     1    1
    54     2     3    1
    55     6     9    1
    56    62    61    1
    57    27    26    2
    58   137   138    2
    59   137   145   am
    60    60    59    2
    61    12    10   am
    62     3     4    2
    63   170   171    1
    64    30    26   am
    65    24    25    1
    66    26    25    1
    67    59    61   am
    68    59    58    1
    69   145   146    1
    70    10     9    1
    71    10    11    2
    72    25    28    1
    73   147   146    1
    74   147   148    2
    75    57    58    1
    76    57    55   am
    77    28    29    1
    78    65    66    1
    79   146   149    1
    80    54    55    1
    81    54    53    1
    82    68    67    2
    83    55    56    2
    84    45    46    1
    85    53    47   am
    86    91    89   ar
    87   149   150    1
    88    67    66    1
    89    47    46    1
    90    47    48    2
    91    66    69    1
    92    46    49    1
    93    49    50    1
    94   189   188    2
    95    70    69    1
    96    70    72    1
    97    69    71    1
    98    50    51    1
    99    50    52    1
   100   150   152   ar
   101   150   151   ar
   102   152   154   ar
   103    89    90   ar
   104    89    88    1
   105   151   153   ar
   106   154   155   ar
   107    77    78    1
   108    77    74    1
   109    73    74    1
   110   188   187    1
   111    88    85    1
   112   153   155   ar
   113   155   156    1
   114    80    78   ar
   115    80    82   ar
   116    78    79   ar
   117   205   204   ar
   118   205   203   ar
   119    74    75    1
   120    84    85    1
   121    84    75   am
   122   204   202   ar
   123    82    83   ar
   124   187   190    1
   125   187   186    1
   126    85    86    1
   127   192   191   ar
   128   192   194   ar
   129   190   191    1
   130    75    76    2
   131    79    81   ar
   132   203   201   ar
   133   185   182    1
   134    83    81   ar
   135   202   201   ar
   136   191   193   ar
   137   194   195   ar
   138    86    87    2
   139   201   200    1
   140   198   199    2
   141   198   197    1
   142   193   195   ar
   143   184   183    2
   144   182   181    1
   145   182   183    1
   146   179   177    1
   147   197   200    1
   148   197   196    1
   149   126   125    1
   150   180   178    1
   151    99    97    1
   152   181   175   am
   153   177   178    1
   154   177   174    1
   155   175   176    2
   156   175   174    1
   157    97    96    1
   158   108   110   ar
   159   108   106   ar
   160   133   132    1
   161   110   109   ar
   162   125   124    1
   163   174   173    1
   164    92    93    1
   165    96    93    1
   166    96    98    1
   167   124   123    1
   168   118   116    1
   169   106   105   ar
   170   109   107   ar
   171   131   132    1
   172   131   128    1
   173   132   134    1
   174   123   120    1
   175    93    94    1
   176   122   121    2
   177   105   107   ar
   178   105   104    1
   179   130   129    2
   180   116   117    1
   181   116   115    1
   182   129   128    1
   183   120   121    1
   184   120   119    1
   185    94    95    2
   186   128   127    1
   187   104   101    1
   188   115   112    1
   189   112   111    1
   190   112   113    1
   191   101   102    1
   192   101   100    1
   193   103   102    2
   194   114   113    2
