@<TRIPOS>MOLECULE
tmp/1q0zA00.pdb
 228 218 0 0 0
SMALL
GASTEIGER

@<TRIPOS>ATOM
      1  N          7.2550   10.8040    6.2560 N.3    31  GLY31      -0.1210
      2  CA         8.2080    9.7040    6.2370 C.3    31  GLY31       0.1956
      3  C          7.6330    8.3400    6.6130 C.2    31  GLY31       0.2612
      4  O          6.9270    8.2200    7.5930 O.2    31  GLY31      -0.2717
      5  N          7.9710    7.3020    5.8430 N.am   32  ASN32      -0.1960
      6  CA         7.5690    5.9360    6.1140 C.3    32  ASN32       0.1819
      7  C          6.0630    5.7400    6.1310 C.2    32  ASN32       0.2621
      8  O          5.5780    4.7630    6.6840 O.2    32  ASN32      -0.2715
      9  CB         8.1710    5.4420    7.4440 C.3    32  ASN32       0.1195
     10  CG         9.6640    5.3710    7.4110 C.2    32  ASN32       0.2630
     11  OD1       10.3490    5.9530    8.2610 O.2    32  ASN32      -0.2716
     12  ND2       10.1960    4.6560    6.4250 N.am   32  ASN32      -0.0877
     13  N          5.3300    6.6500    5.4810 N.am   33  LEU33      -0.1977
     14  CA         3.8830    6.5880    5.4290 C.3    33  LEU33       0.1596
     15  C          3.4420    6.3870    3.9850 C.2    33  LEU33       0.2287
     16  O          3.8160    7.1700    3.1060 O.2    33  LEU33      -0.2864
     17  CB         3.2960    7.8870    5.9700 C.3    33  LEU33       0.0297
     18  CG         3.4770    7.9910    7.4900 C.3    33  LEU33       0.0022
     19  CD1        3.6070    9.4300    7.9460 C.3    33  LEU33       0.0001
     20  CD2        2.3440    7.3090    8.1710 C.3    33  LEU33       0.0001
     21  N         16.2290   12.9710   -1.2040 N.3    76  PHE76      -0.1241
     22  CA        15.0380   13.7870   -1.4280 C.3    76  PHE76       0.1605
     23  C         14.8960   14.1760   -2.8930 C.2    76  PHE76       0.2264
     24  O         13.7840   14.4620   -3.3470 O.2    76  PHE76      -0.2867
     25  CB        15.0420   15.0200   -0.5260 C.3    76  PHE76       0.0534
     26  CG        14.6010   14.7130    0.8820 C.ar   76  PHE76      -0.0203
     27  CD1       15.4870   14.1170    1.7890 C.ar   76  PHE76      -0.0042
     28  CD2       13.2870   14.9370    1.2760 C.ar   76  PHE76      -0.0042
     29  CE1       15.0530   13.7860    3.0830 C.ar   76  PHE76      -0.0003
     30  CE2       12.8640   14.6120    2.5660 C.ar   76  PHE76      -0.0003
     31  CZ        13.7460   14.0510    3.4660 C.ar   76  PHE76      -0.0000
     32  N          4.5680   16.9940    6.8500 N.3   101  SER101     -0.1202
     33  CA         5.6720   16.5030    7.6920 C.3   101  SER101      0.2020
     34  C          6.9730   16.3580    6.8490 C.2   101  SER101      0.2618
     35  O          7.3880   17.3110    6.2260 O.2   101  SER101     -0.2717
     36  CB         5.2500   15.2020    8.3780 C.3   101  SER101      0.2103
     37  OG         6.1330   14.8720    9.4420 O.3   101  SER101     -0.2182
     38  N          7.5760   15.1730    6.7790 N.am  102  MET102     -0.1979
     39  CA         8.7390   14.9860    5.9130 C.3   102  MET102      0.1605
     40  C          8.4020   15.3240    4.4440 C.2   102  MET102      0.2287
     41  O          9.2670   15.7160    3.6660 O.2   102  MET102     -0.2864
     42  CB         9.2880   13.5650    6.0270 C.3   102  MET102      0.0413
     43  CG        10.6910   13.4400    5.4300 C.3   102  MET102      0.0598
     44  SD        11.3080   11.7720    5.4540 S.3   102  MET102     -0.1393
     45  CE        10.8230   11.2020    3.8150 C.3   102  MET102      0.0692
     46  N          9.2780   18.7490    3.3130 N.3   105  THR105     -0.1218
     47  CA        10.6690   18.8200    2.8220 C.3   105  THR105      0.1862
     48  C         10.7490   18.4190    1.3410 C.2   105  THR105      0.2287
     49  O         11.4180   19.0770    0.5280 O.2   105  THR105     -0.2866
     50  CB        11.5910   17.9430    3.6930 C.3   105  THR105      0.1770
     51  OG1       11.5090   18.3860    5.0640 O.3   105  THR105     -0.2211
     52  CG2       13.0680   18.1580    3.3450 C.3   105  THR105      0.0375
     53  N          2.8020   20.7320    9.0210 N.3   125  LEU125     -0.1231
     54  CA         3.4670   19.8240    9.9560 C.3   125  LEU125      0.1693
     55  C          4.9720   19.6800    9.6650 C.2   125  LEU125      0.2593
     56  O          5.6070   18.6970   10.0870 O.2   125  LEU125     -0.2718
     57  CB         2.7800   18.4520    9.9340 C.3   125  LEU125      0.0284
     58  CG         1.2640   18.3760   10.1810 C.3   125  LEU125      0.0019
     59  CD1        0.8570   16.9360   10.5800 C.3   125  LEU125      0.0001
     60  CD2        0.7530   19.3990   11.1960 C.3   125  LEU125      0.0001
     61  N          5.5360   20.6900    8.9880 N.am  126  GLY126     -0.1942
     62  CA         6.8950   20.6250    8.4710 C.3   126  GLY126      0.2014
     63  C          7.7060   21.8620    8.8070 C.2   126  GLY126      0.2639
     64  O          7.2720   22.7360    9.5690 O.2   126  GLY126     -0.2714
     65  N          8.8960   21.9390    8.2460 N.am  127  GLY127     -0.1939
     66  CA         9.7590   23.0980    8.4720 C.3   127  GLY127      0.2014
     67  C         10.7110   23.3330    7.3300 C.2   127  GLY127      0.2639
     68  O         10.7480   22.5620    6.3820 O.2   127  GLY127     -0.2714
     69  N         11.4770   24.4130    7.4300 N.am  128  GLY128     -0.1954
     70  CA        12.3180   24.8590    6.3370 C.3   128  GLY128      0.1869
     71  C         13.4850   23.9460    6.0500 C.2   128  GLY128      0.2309
     72  O         13.9430   23.2320    6.9390 O.2   128  GLY128     -0.2863
     73  N         16.4440   23.9670    8.4680 N.3   131  ILE131     -0.1245
     74  CA        16.3130   23.3220    9.7710 C.3   131  ILE131      0.1561
     75  C         16.9970   21.9530    9.6950 C.2   131  ILE131      0.2260
     76  O         16.5550   21.0550    8.9680 O.2   131  ILE131     -0.2867
     77  CB        14.8200   23.1470   10.1390 C.3   131  ILE131      0.0252
     78  CG1       14.0810   24.4850   10.1200 C.3   131  ILE131      0.0019
     79  CG2       14.6440   22.4330   11.5060 C.3   131  ILE131      0.0019
     80  CD1       14.7230   25.6190   10.9220 C.3   131  ILE131      0.0001
     81  N         17.0670   19.0630   10.9300 N.3   133  PHE133     -0.1227
     82  CA        16.1600   18.2990   11.7700 C.3   133  PHE133      0.1736
     83  C         16.8070   17.1240   12.5230 C.2   133  PHE133      0.2595
     84  O         16.6030   16.9380   13.7270 O.2   133  PHE133     -0.2718
     85  CB        15.0280   17.7810   10.9070 C.3   133  PHE133      0.0547
     86  CG        13.9710   17.0930   11.6610 C.ar  133  PHE133     -0.0202
     87  CD1       13.2310   17.7720   12.6110 C.ar  133  PHE133     -0.0042
     88  CD2       13.6860   15.7530   11.4130 C.ar  133  PHE133     -0.0042
     89  CE1       12.2200   17.1180   13.3280 C.ar  133  PHE133     -0.0003
     90  CE2       12.6820   15.0920   12.1190 C.ar  133  PHE133     -0.0003
     91  CZ        11.9520   15.7650   13.0840 C.ar  133  PHE133     -0.0000
     92  N         17.5730   16.3060   11.8100 N.am  134  ASP134     -0.1974
     93  CA        18.1490   15.1130   12.4220 C.3   134  ASP134      0.1709
     94  C         19.1230   15.4850   13.5160 C.2   134  ASP134      0.2293
     95  O         19.0840   14.9160   14.6120 O.2   134  ASP134     -0.2864
     96  CB        18.8440   14.2270   11.3720 C.3   134  ASP134      0.1436
     97  CG        17.8630   13.5540   10.4400 C.2   134  ASP134      0.3671
     98  OD1       16.6730   13.3890   10.8200 O.co2 134  ASP134     -0.2456
     99  OD2       18.2080   13.1540    9.3030 O.co2 134  ASP134     -0.2456
    100  N         17.3200   16.5600   16.6450 N.3   137  ILE137     -0.1231
    101  CA        16.7630   15.5000   17.5010 C.3   137  ILE137      0.1692
    102  C         17.8320   15.0990   18.5030 C.2   137  ILE137      0.2591
    103  O         17.5760   14.9570   19.7000 O.2   137  ILE137     -0.2718
    104  CB        16.3210   14.2900   16.6530 C.3   137  ILE137      0.0266
    105  CG1       15.0280   14.6230   15.8940 C.3   137  ILE137      0.0019
    106  CG2       16.1270   13.0490   17.5200 C.3   137  ILE137      0.0020
    107  CD1       14.6760   13.6180   14.8510 C.3   137  ILE137      0.0001
    108  N         19.0370   14.9430   17.9800 N.am  138  GLU138     -0.1979
    109  CA        20.2280   14.6260   18.7530 C.3   138  GLU138      0.1602
    110  C         20.4960   15.7200   19.8050 C.2   138  GLU138      0.2287
    111  O         20.7700   15.4300   20.9620 O.2   138  GLU138     -0.2864
    112  CB        21.3940   14.4740   17.7670 C.3   138  GLU138      0.0415
    113  CG        22.6420   13.8110   18.2920 C.3   138  GLU138      0.1163
    114  CD        23.6140   13.4510   17.1660 C.2   138  GLU138      0.3649
    115  OE1       23.7830   14.2590   16.2040 O.co2 138  GLU138     -0.2457
    116  OE2       24.2100   12.3520   17.2540 O.co2 138  GLU138     -0.2457
    117  N          6.9690   13.8000   20.8060 N.3   157  PHE157     -0.1241
    118  CA         7.6800   13.1570   19.7010 C.3   157  PHE157      0.1605
    119  C          8.5940   12.0340   20.1920 C.2   157  PHE157      0.2264
    120  O          8.6250   10.9390   19.6010 O.2   157  PHE157     -0.2867
    121  CB         8.5160   14.1710   18.9300 C.3   157  PHE157      0.0534
    122  CG         9.4130   13.5510   17.8720 C.ar  157  PHE157     -0.0203
    123  CD1        8.8690   12.9500   16.7540 C.ar  157  PHE157     -0.0042
    124  CD2       10.7940   13.5740   18.0090 C.ar  157  PHE157     -0.0042
    125  CE1        9.6750   12.4010   15.7850 C.ar  157  PHE157     -0.0003
    126  CE2       11.6160   13.0290   17.0200 C.ar  157  PHE157     -0.0003
    127  CZ        11.0450   12.4460   15.9080 C.ar  157  PHE157     -0.0000
    128  N          8.5030    7.8760   19.7580 N.3   161  LEU161     -0.1245
    129  CA         9.6260    7.0330   19.3240 C.3   161  LEU161      0.1561
    130  C          9.8310    5.8550   20.2670 C.2   161  LEU161      0.2260
    131  O         10.1750    4.7740   19.8180 O.2   161  LEU161     -0.2867
    132  CB        10.9380    7.8330   19.2280 C.3   161  LEU161      0.0270
    133  CG        11.0720    8.9070   18.1560 C.3   161  LEU161      0.0019
    134  CD1       12.4280    9.5770   18.2900 C.3   161  LEU161      0.0001
    135  CD2       10.8900    8.3370   16.7450 C.3   161  LEU161      0.0001
    136  N          7.3030    3.1330   19.6100 N.3   164  MET164     -0.1245
    137  CA         7.6560    2.4360   18.3650 C.3   164  MET164      0.1570
    138  C          8.7350    1.3560   18.6190 C.2   164  MET164      0.2261
    139  O          8.8020    0.3510   17.9070 O.2   164  MET164     -0.2867
    140  CB         8.1440    3.4390   17.2890 C.3   164  MET164      0.0387
    141  CG         7.0670    4.3780   16.7040 C.3   164  MET164      0.0595
    142  SD         7.6640    6.0050   15.9510 S.3   164  MET164     -0.1393
    143  CE         7.3880    5.6960   14.2110 C.3   164  MET164      0.0692
    144  N          0.8790   11.9090   19.4250 N.3   185  LEU185     -0.1245
    145  CA         1.3320   12.9670   18.5280 C.3   185  LEU185      0.1561
    146  C          0.2490   14.0340   18.2920 C.2   185  LEU185      0.2260
    147  O          0.5630   15.2290   18.2090 O.2   185  LEU185     -0.2867
    148  CB         1.8020   12.3740   17.1950 C.3   185  LEU185      0.0270
    149  CG         3.1360   11.6320   17.2600 C.3   185  LEU185      0.0019
    150  CD1        3.4370   11.0180   15.9250 C.3   185  LEU185      0.0001
    151  CD2        4.3130   12.5330   17.6980 C.3   185  LEU185      0.0001
    152  N         13.0310    5.0950    5.1260 N.3   218  HIS218     -0.1226
    153  CA        13.2060    6.5550    5.1710 C.3   218  HIS218      0.1752
    154  C         14.0290    7.0840    6.3490 C.2   218  HIS218      0.2596
    155  O         14.4860    8.2260    6.2990 O.2   218  HIS218     -0.2718
    156  CB        11.8610    7.2770    5.0890 C.3   218  HIS218      0.0759
    157  CG        11.1120    7.0070    3.8170 C.ar  218  HIS218      0.0818
    158  ND1       11.6420    6.2690    2.7810 N.ar  218  HIS218     -0.2268
    159  CD2        9.8620    7.3520    3.4300 C.ar  218  HIS218      0.1154
    160  CE1       10.7500    6.1790    1.8100 C.ar  218  HIS218      0.1986
    161  NE2        9.6630    6.8270    2.1790 N.ar  218  HIS218     -0.2212
    162  N         14.2310    6.2650    7.3830 N.am  219  TYR219     -0.1962
    163  CA        15.1830    6.5910    8.4630 C.3   219  TYR219      0.1771
    164  C         16.6320    6.6880    7.9800 C.2   219  TYR219      0.2620
    165  O         17.4740    7.2810    8.6770 O.2   219  TYR219     -0.2715
    166  CB        15.1160    5.5830    9.6230 C.3   219  TYR219      0.0574
    167  CG        13.7660    5.4980   10.3060 C.ar  219  TYR219     -0.0198
    168  CD1       13.1990    6.6120   10.9320 C.ar  219  TYR219     -0.0009
    169  CD2       13.0470    4.3000   10.3220 C.ar  219  TYR219     -0.0009
    170  CE1       11.9400    6.5330   11.5320 C.ar  219  TYR219      0.0417
    171  CE2       11.7920    4.2150   10.9210 C.ar  219  TYR219      0.0417
    172  CZ        11.2500    5.3340   11.5180 C.ar  219  TYR219      0.1957
    173  OH        10.0100    5.2430   12.1010 O.3   219  TYR219     -0.2866
    174  N         16.9360    6.0970    6.8200 N.am  220  SER220     -0.1936
    175  CA        18.2960    6.1170    6.2530 C.3   220  SER220      0.2055
    176  C         18.5590    7.3150    5.3390 C.2   220  SER220      0.2642
    177  O         19.6670    7.4920    4.8570 O.2   220  SER220     -0.2714
    178  CB        18.5730    4.8230    5.4860 C.3   220  SER220      0.2130
    179  OG        18.5250    3.7040    6.3470 O.3   220  SER220     -0.2179
    180  N         17.5240    8.1140    5.0910 N.am  221  LEU221     -0.1977
    181  CA        17.6210    9.3210    4.2720 C.3   221  LEU221      0.1596
    182  C         18.5180   10.3650    4.9110 C.2   221  LEU221      0.2287
    183  O         18.5440   10.5170    6.1250 O.2   221  LEU221     -0.2864
    184  CB        16.2350    9.9490    4.0780 C.3   221  LEU221      0.0297
    185  CG        15.2420    9.1810    3.2090 C.3   221  LEU221      0.0022
    186  CD1       13.8640    9.8350    3.2310 C.3   221  LEU221      0.0001
    187  CD2       15.7560    9.0890    1.7750 C.3   221  LEU221      0.0001
    188  N         19.0440   14.5470    4.7030 N.3   223  LEU223     -0.1245
    189  CA        18.3400   15.7720    4.3180 C.3   223  LEU223      0.1561
    190  C         19.1130   16.5820    3.2880 C.2   223  LEU223      0.2260
    191  O         20.3230   16.4860    3.2260 O.2   223  LEU223     -0.2867
    192  CB        18.1180   16.6390    5.5450 C.3   223  LEU223      0.0270
    193  CG        17.1950   16.0320    6.6130 C.3   223  LEU223      0.0019
    194  CD1       17.2330   16.8690    7.8730 C.3   223  LEU223      0.0001
    195  CD2       15.7790   15.9320    6.0850 C.3   223  LEU223      0.0001
    196  N          6.4130   18.0170   16.8570 N.3   249  ILE249     -0.1231
    197  CA         7.6180   17.7850   16.0700 C.3   249  ILE249      0.1692
    198  C          8.1690   19.0740   15.4800 C.2   249  ILE249      0.2591
    199  O          9.3790   19.2600   15.4440 O.2   249  ILE249     -0.2718
    200  CB         7.3560   16.7400   14.9580 C.3   249  ILE249      0.0266
    201  CG1        6.6470   15.5220   15.5590 C.3   249  ILE249      0.0019
    202  CG2        8.6820   16.3550   14.3090 C.3   249  ILE249      0.0020
    203  CD1        6.4490   14.3310   14.6000 C.3   249  ILE249      0.0001
    204  N          7.2800   19.9510   15.0310 N.am  250  ALA250     -0.1980
    205  CA         7.6520   21.1890   14.3510 C.3   250  ALA250      0.1597
    206  C          6.8790   22.3440   14.9490 C.2   250  ALA250      0.2287
    207  O          6.0360   22.9350   14.2940 O.2   250  ALA250     -0.2864
    208  CB         7.3520   21.0880   12.8630 C.3   250  ALA250      0.0319
    209  N          8.0250   27.4040   13.5650 N.3   254  HIS254     -0.1241
    210  CA         8.5650   26.7770   12.3520 C.3   254  HIS254      0.1621
    211  C          7.7620   27.1220   11.0970 C.2   254  HIS254      0.2264
    212  O          8.3360   27.3510   10.0400 O.2   254  HIS254     -0.2867
    213  CB         8.6250   25.2770   12.4950 C.3   254  HIS254      0.0745
    214  CG         9.8940   24.8000   13.1060 C.ar  254  HIS254      0.0817
    215  ND1       11.0510   24.6450   12.3740 N.ar  254  HIS254     -0.2268
    216  CD2       10.2040   24.4830   14.3870 C.ar  254  HIS254      0.1154
    217  CE1       12.0120   24.2110   13.1780 C.ar  254  HIS254      0.1986
    218  NE2       11.5260   24.1180   14.4070 N.ar  254  HIS254     -0.2212
    219  N          0.2540   16.6620   15.5810 N.3   275  HIS275     -0.1241
    220  CA         0.9320   16.0970   14.4050 C.3   275  HIS275      0.1621
    221  C          0.2250   14.8280   13.9740 C.2   275  HIS275      0.2264
    222  O          0.7970   13.7420   14.0000 O.2   275  HIS275     -0.2867
    223  CB         2.4110   15.8160   14.7260 C.3   275  HIS275      0.0745
    224  CG         3.3060   15.8000   13.5280 C.ar  275  HIS275      0.0817
    225  ND1        4.2080   16.8100   13.2600 N.ar  275  HIS275     -0.2268
    226  CD2        3.4530   14.8870   12.5350 C.ar  275  HIS275      0.1154
    227  CE1        4.8620   16.5260   12.1470 C.ar  275  HIS275      0.1986
    228  NE2        4.4140   15.3710   11.6800 N.ar  275  HIS275     -0.2212
@<TRIPOS>BOND
     1    24    23    2
     2    23    22    1
     3    22    21    1
     4    22    25    1
     5    25    26    1
     6    49    48    2
     7    26    28   ar
     8    26    27   ar
     9    28    30   ar
    10    48    47    1
    11   187   185    1
    12    27    29   ar
    13   160   161   ar
    14   160   158   ar
    15   161   159   ar
    16    30    31   ar
    17   158   157   ar
    18    47    46    1
    19    47    50    1
    20    29    31   ar
    21    16    15    2
    22   185   186    1
    23   185   184    1
    24   191   190    2
    25   190   189    1
    26    52    50    1
    27   159   157   ar
    28    41    40    2
    29    50    51    1
    30    45    44    1
    31   157   156    1
    32    15    14    1
    33   184   181    1
    34   181   182    1
    35   181   180    1
    36   189   188    1
    37   189   192    1
    38    40    39    1
    39   177   176    2
    40   182   183    2
    41   156   153    1
    42   180   176   am
    43   152   153    1
    44   153   154    1
    45   176   175    1
    46    14    13    1
    47    14    17    1
    48    43    44    1
    49    43    42    1
    50    13     7   am
    51   178   175    1
    52   178   179    1
    53   192   193    1
    54     5     6    1
    55     5     3   am
    56    39    42    1
    57    39    38    1
    58    17    18    1
    59    71    70    1
    60    71    72    2
    61   195   193    1
    62     6     7    1
    63     6     9    1
    64     7     8    2
    65    35    34    2
    66     2     1    1
    67     2     3    1
    68   175   174    1
    69   155   154    2
    70    70    69    1
    71   154   162   am
    72    68    67    2
    73    12    10   am
    74     3     4    2
    75   193   194    1
    76    38    34   am
    77   174   164   am
    78    34    33    1
    79    32    33    1
    80    67    69   am
    81    67    66    1
    82   162   163    1
    83    10     9    1
    84    10    11    2
    85    18    19    1
    86    18    20    1
    87    33    36    1
    88   164   163    1
    89   164   165    2
    90    65    66    1
    91    65    63   am
    92    36    37    1
    93   163   166    1
    94    73    74    1
    95    62    63    1
    96    62    61    1
    97    63    64    2
    98    76    75    2
    99    61    55   am
   100    53    54    1
   101    99    97   ar
   102   166   167    1
   103    55    54    1
   104    55    56    2
   105    75    74    1
   106    74    77    1
   107    57    54    1
   108    57    58    1
   109   212   211    2
   110    78    77    1
   111    78    80    1
   112    77    79    1
   113    58    59    1
   114    58    60    1
   115   167   169   ar
   116   167   168   ar
   117   169   171   ar
   118    97    98   ar
   119    97    96    1
   120    85    86    1
   121    85    82    1
   122   171   172   ar
   123    81    82    1
   124   168   170   ar
   125   211   210    1
   126    96    93    1
   127    88    86   ar
   128    88    90   ar
   129   172   170   ar
   130   172   173    1
   131    86    87   ar
   132   228   227   ar
   133   228   226   ar
   134    82    83    1
   135    92    93    1
   136    92    83   am
   137    90    91   ar
   138   227   225   ar
   139   210   213    1
   140   210   209    1
   141   215   214   ar
   142   215   217   ar
   143    93    94    1
   144   213   214    1
   145    83    84    2
   146   226   224   ar
   147    87    89   ar
   148   208   205    1
   149    91    89   ar
   150   214   216   ar
   151   217   218   ar
   152   225   224   ar
   153    94    95    2
   154   224   223    1
   155   221   222    2
   156   221   220    1
   157   143   142    1
   158   207   206    2
   159   202   200    1
   160   205   206    1
   161   205   204    1
   162   216   218   ar
   163   220   223    1
   164   220   219    1
   165   203   201    1
   166   107   105    1
   167   200   201    1
   168   200   197    1
   169   204   198   am
   170   199   198    2
   171   198   197    1
   172   125   127   ar
   173   125   123   ar
   174   105   104    1
   175   127   126   ar
   176   150   149    1
   177   142   141    1
   178   197   196    1
   179   115   114   ar
   180   100   101    1
   181   104   101    1
   182   104   106    1
   183   141   140    1
   184   135   133    1
   185   123   122   ar
   186   126   124   ar
   187   114   116   ar
   188   114   113    1
   189   148   149    1
   190   148   145    1
   191   149   151    1
   192   140   137    1
   193   101   102    1
   194   112   113    1
   195   112   109    1
   196   122   124   ar
   197   122   121    1
   198   139   138    2
   199   108   102   am
   200   108   109    1
   201   133   134    1
   202   133   132    1
   203   147   146    2
   204   146   145    1
   205   137   138    1
   206   137   136    1
   207   102   103    2
   208   145   144    1
   209   109   110    1
   210   121   118    1
   211   132   129    1
   212   129   128    1
   213   129   130    1
   214   120   119    2
   215   118   119    1
   216   118   117    1
   217   110   111    2
   218   131   130    2
