@<TRIPOS>MOLECULE
tmp/1q13A01.pdb
 145 145 0 0 0
SMALL
GASTEIGER

@<TRIPOS>ATOM
      1  N         19.8690   -4.7900   25.3410 N.3    23  TYR23      -0.1298
      2  CA        21.2780   -4.9440   25.5250 C.3    23  TYR23       0.1290
      3  C         21.5990   -6.4070   25.2630 C.3    23  TYR23       0.2013
      4  O         20.7950   -7.3080   25.7670 O.3    23  TYR23      -0.2188
      5  CB        21.6790   -4.5620   26.9390 C.3    23  TYR23       0.0480
      6  CG        23.0720   -5.0220   27.2640 C.ar   23  TYR23      -0.0204
      7  CD1       24.1980   -4.3620   26.6540 C.ar   23  TYR23      -0.0009
      8  CD2       23.2740   -6.1260   28.2780 C.ar   23  TYR23      -0.0009
      9  CE1       25.5040   -4.7610   27.0050 C.ar   23  TYR23       0.0417
     10  CE2       24.5850   -6.5600   28.6460 C.ar   23  TYR23       0.0417
     11  CZ        25.6840   -5.8720   28.0240 C.ar   23  TYR23       0.1957
     12  OH        26.9620   -6.2940   28.2590 O.3    23  TYR23      -0.2866
     13  N         25.1240    3.5510   24.9750 N.3    53  PHE53      -0.1227
     14  CA        26.0590    2.5340   25.3810 C.3    53  PHE53       0.1736
     15  C         25.8830    1.2260   24.6290 C.2    53  PHE53       0.2595
     16  O         26.8430    0.4960   24.4950 O.2    53  PHE53      -0.2718
     17  CB        25.9090    2.2370   26.9190 C.3    53  PHE53       0.0547
     18  CG        26.9950    1.3380   27.4790 C.ar   53  PHE53      -0.0202
     19  CD1       28.3100    1.7870   27.5930 C.ar   53  PHE53      -0.0042
     20  CD2       26.7080    0.0370   27.8490 C.ar   53  PHE53      -0.0042
     21  CE1       29.3010    0.9510   28.0730 C.ar   53  PHE53      -0.0003
     22  CE2       27.7010   -0.7980   28.3340 C.ar   53  PHE53      -0.0003
     23  CZ        28.9940   -0.3360   28.4530 C.ar   53  PHE53      -0.0000
     24  N         24.6730    0.8700   24.1840 N.am   54  TYR54      -0.1976
     25  CA        24.5060   -0.4740   23.6140 C.3    54  TYR54       0.1639
     26  C         24.9080   -0.4720   22.1030 C.2    54  TYR54       0.2290
     27  O         24.9520   -1.5170   21.4800 O.2    54  TYR54      -0.2864
     28  CB        23.0790   -1.0210   23.8050 C.3    54  TYR54       0.0560
     29  CG        22.5150   -0.9270   25.2530 C.ar   54  TYR54      -0.0198
     30  CD1       23.3580   -0.9100   26.3680 C.ar   54  TYR54      -0.0009
     31  CD2       21.1440   -0.8120   25.4760 C.ar   54  TYR54      -0.0009
     32  CE1       22.8270   -0.8220   27.6760 C.ar   54  TYR54       0.0417
     33  CE2       20.6040   -0.7320   26.7990 C.ar   54  TYR54       0.0417
     34  CZ        21.4570   -0.7050   27.8720 C.ar   54  TYR54       0.1957
     35  OH        20.9270   -0.6190   29.1610 O.3    54  TYR54      -0.2866
     36  N         25.0400    8.3690   28.0730 N.3    85  TRP85      -0.1241
     37  CA        26.2380    7.7430   28.6100 C.3    85  TRP85       0.1605
     38  C         27.0880    8.7010   29.4850 C.2    85  TRP85       0.2264
     39  O         27.0400    9.9400   29.2810 O.2    85  TRP85      -0.2867
     40  CB        27.1080    7.0790   27.5550 C.3    85  TRP85       0.0550
     41  CG        28.2030    6.3460   28.2340 C.ar   85  TRP85       0.0003
     42  CD1       29.5420    6.5940   28.1530 C.ar   85  TRP85       0.0946
     43  CD2       28.0440    5.2940   29.1680 C.ar   85  TRP85       0.0152
     44  NE1       30.2300    5.7330   28.9690 N.ar   85  TRP85      -0.2442
     45  CE2       29.3350    4.9060   29.5870 C.ar   85  TRP85       0.0810
     46  CE3       26.9370    4.6010   29.6690 C.ar   85  TRP85       0.0012
     47  CZ2       29.5520    3.8700   30.4950 C.ar   85  TRP85       0.0191
     48  CZ3       27.1520    3.5630   30.6050 C.ar   85  TRP85       0.0001
     49  CH2       28.4510    3.2170   30.9990 C.ar   85  TRP85       0.0015
     50  N         22.2930    7.6700   32.4800 N.3   116  HIS116     -0.1226
     51  CA        22.4760    6.2450   32.6140 C.3   116  HIS116      0.1752
     52  C         23.0150    5.8900   33.9790 C.2   116  HIS116      0.2596
     53  O         22.5400    4.9360   34.5430 O.2   116  HIS116     -0.2718
     54  CB        23.4270    5.7210   31.5610 C.3   116  HIS116      0.0759
     55  CG        23.2310    4.2780   31.2360 C.ar  116  HIS116      0.0818
     56  ND1       23.4620    3.7690   29.9750 N.ar  116  HIS116     -0.2268
     57  CD2       22.8380    3.2350   32.0060 C.ar  116  HIS116      0.1154
     58  CE1       23.2090    2.4700   29.9750 C.ar  116  HIS116      0.1986
     59  NE2       22.8250    2.1190   31.1920 N.ar  116  HIS116     -0.2212
     60  N         24.0150    6.6400   34.4440 N.am  117  PHE117     -0.1976
     61  CA        24.6030    6.5290   35.7730 C.3   117  PHE117      0.1639
     62  C         24.8720    7.9200   36.2030 C.2   117  PHE117      0.2290
     63  O         25.0870    8.7960   35.3340 O.2   117  PHE117     -0.2864
     64  CB        25.9630    5.8470   35.7410 C.3   117  PHE117      0.0560
     65  CG        25.8970    4.3500   35.6300 C.ar  117  PHE117     -0.0200
     66  CD1       25.9550    3.7230   34.3870 C.ar  117  PHE117     -0.0042
     67  CD2       25.7460    3.5810   36.7480 C.ar  117  PHE117     -0.0042
     68  CE1       25.9010    2.3510   34.2920 C.ar  117  PHE117     -0.0003
     69  CE2       25.6870    2.2030   36.6550 C.ar  117  PHE117     -0.0003
     70  CZ        25.7710    1.5890   35.4230 C.ar  117  PHE117     -0.0000
     71  N         34.2890    3.7970   27.9270 N.3   128  ILE128     -0.1245
     72  CA        34.8140    3.8860   29.2700 C.3   128  ILE128      0.1561
     73  C         36.3170    4.0300   29.1030 C.2   128  ILE128      0.2260
     74  O         37.0400    3.0540   28.9880 O.2   128  ILE128     -0.2867
     75  CB        34.4810    2.6140   30.0890 C.3   128  ILE128      0.0252
     76  CG1       32.9640    2.4750   30.2950 C.3   128  ILE128      0.0019
     77  CG2       35.2330    2.6110   31.4320 C.3   128  ILE128      0.0019
     78  CD1       32.6380    1.1980   31.0780 C.3   128  ILE128      0.0001
     79  N         20.0200    4.2100   37.9850 N.3   166  ASN166     -0.1240
     80  CA        21.0860    3.8880   38.9220 C.3   166  ASN166      0.1653
     81  C         21.3740    5.0460   39.8660 C.2   166  ASN166      0.2266
     82  O         22.5240    5.1640   40.3630 O.2   166  ASN166     -0.2867
     83  CB        22.3610    3.5250   38.1570 C.3   166  ASN166      0.1155
     84  CG        22.1650    2.3140   37.2700 C.2   166  ASN166      0.2627
     85  OD1       22.2950    2.3840   36.0120 O.2   166  ASN166     -0.2716
     86  ND2       21.8240    1.2200   37.8640 N.am  166  ASN166     -0.0877
     87  N         15.6080   -3.2950   35.7430 N.3   215  TYR215     -0.1241
     88  CA        16.3780   -4.0410   34.7910 C.3   215  TYR215      0.1605
     89  C         16.9940   -5.2060   35.5060 C.2   215  TYR215      0.2264
     90  O         17.0030   -5.2620   36.7870 O.2   215  TYR215     -0.2867
     91  CB        17.4070   -3.1410   34.0550 C.3   215  TYR215      0.0534
     92  CG        18.5540   -2.6410   34.9360 C.ar  215  TYR215     -0.0201
     93  CD1       19.5440   -3.5200   35.3370 C.ar  215  TYR215     -0.0009
     94  CD2       18.6970   -1.2750   35.2550 C.ar  215  TYR215     -0.0009
     95  CE1       20.6050   -3.1170   36.1160 C.ar  215  TYR215      0.0417
     96  CE2       19.7650   -0.8440   36.0800 C.ar  215  TYR215      0.0417
     97  CZ        20.7040   -1.7940   36.5380 C.ar  215  TYR215      0.1957
     98  OH        21.8220   -1.4610   37.1990 O.3   215  TYR215     -0.2866
     99  N         27.4950  -11.3280   33.2900 N.3   223  GLU223     -0.1231
    100  CA        28.8850  -11.1050   32.8610 C.3   223  GLU223      0.1684
    101  C         29.6730  -10.2850   33.8740 C.2   223  GLU223      0.2434
    102  O         29.1160   -9.7740   34.8030 O.2   223  GLU223     -0.2733
    103  CB        28.9460  -10.2880   31.5790 C.3   223  GLU223      0.0402
    104  CG        28.0250  -10.6810   30.4650 C.3   223  GLU223      0.1161
    105  CD        27.8760   -9.4980   29.5160 C.2   223  GLU223      0.3649
    106  OE1       28.8350   -9.2300   28.7660 O.co2 223  GLU223     -0.2457
    107  OE2       26.8300   -8.8170   29.5560 O.co2 223  GLU223     -0.2457
    108  N         30.9730  -10.1340   33.6820 N.am  224  PRO224     -0.2729
    109  CA        31.8080  -11.1040   32.9770 C.3   224  PRO224      0.1401
    110  C         32.1750  -12.2310   33.9010 C.2   224  PRO224      0.2269
    111  O         32.3700  -12.0250   35.1080 O.2   224  PRO224     -0.2865
    112  CB        33.0690  -10.3000   32.6040 C.3   224  PRO224      0.0296
    113  CG        33.0780   -9.0990   33.5140 C.3   224  PRO224      0.0237
    114  CD        31.6800   -8.8870   34.0010 C.3   224  PRO224      0.0939
    115  N         24.8210   -5.8430   38.8430 N.3   305  VAL305     -0.1245
    116  CA        25.5960   -4.7330   38.2940 C.3   305  VAL305      0.1561
    117  C         26.1010   -3.8470   39.4510 C.2   305  VAL305      0.2260
    118  O         25.3540   -2.9980   39.8970 O.2   305  VAL305     -0.2867
    119  CB        24.7280   -3.7900   37.3880 C.3   305  VAL305      0.0252
    120  CG1       25.4220   -2.4670   37.1630 C.3   305  VAL305      0.0019
    121  CG2       24.2950   -4.4420   36.0820 C.3   305  VAL305      0.0019
    122  N         28.8070   -2.1020   38.6440 N.3   307  ALA307     -0.1231
    123  CA        29.3850   -0.9760   37.8540 C.3   307  ALA307      0.1694
    124  C         30.7750   -0.5990   38.3940 C.2   307  ALA307      0.2592
    125  O         31.0050    0.5550   38.8250 O.2   307  ALA307     -0.2718
    126  CB        28.4870    0.2420   38.0050 C.3   307  ALA307      0.0304
    127  N         31.6750   -1.5950   38.4610 N.am  308  ASP308     -0.1960
    128  CA        32.9120   -1.5330   39.3290 C.3   308  ASP308      0.1840
    129  C         33.8140   -0.3720   38.8700 C.2   308  ASP308      0.2622
    130  O         34.5420    0.2640   39.6900 O.2   308  ASP308     -0.2715
    131  CB        33.6620   -2.8710   39.2810 C.3   308  ASP308      0.1450
    132  CG        33.9990   -3.3940   40.6460 C.2   308  ASP308      0.3671
    133  OD1       33.0730   -3.5070   41.5130 O.co2 308  ASP308     -0.2456
    134  OD2       35.1760   -3.7360   40.9560 O.co2 308  ASP308     -0.2456
    135  N         33.6910   -0.0850   37.5720 N.am  309  PHE309     -0.1974
    136  CA        34.4470    0.9340   36.8500 C.3   309  PHE309      0.1639
    137  C         34.3400    2.3340   37.4780 C.2   309  PHE309      0.2290
    138  O         35.3060    3.1640   37.3850 O.2   309  PHE309     -0.2864
    139  CB        34.0080    0.9570   35.3560 C.3   309  PHE309      0.0560
    140  CG        32.5960    1.4920   35.1330 C.ar  309  PHE309     -0.0200
    141  CD1       31.4830    0.6260   35.2050 C.ar  309  PHE309     -0.0042
    142  CD2       32.3780    2.8540   34.8310 C.ar  309  PHE309     -0.0042
    143  CE1       30.1820    1.1130   34.9640 C.ar  309  PHE309     -0.0003
    144  CE2       31.0760    3.3500   34.6430 C.ar  309  PHE309     -0.0003
    145  CZ        29.9900    2.4850   34.7080 C.ar  309  PHE309     -0.0000
@<TRIPOS>BOND
     1    27    26    2
     2    26    25    1
     3    25    28    1
     4    25    24    1
     5    28    29    1
     6    24    15   am
     7    16    15    2
     8    15    14    1
     9    13    14    1
    10    29    31   ar
    11    29    30   ar
    12     3     2    1
    13     3     4    1
    14     1     2    1
    15    14    17    1
    16    31    33   ar
    17     2     5    1
    18    30    32   ar
    19     7     9   ar
    20     7     6   ar
    21    33    34   ar
    22    17    18    1
    23     5     6    1
    24     9    11   ar
    25     6     8   ar
    26    18    19   ar
    27    18    20   ar
    28    40    41    1
    29    40    37    1
    30    19    21   ar
    31    32    34   ar
    32    20    22   ar
    33    34    35    1
    34    71    72    1
    35    11    12    1
    36    11    10   ar
    37    21    23   ar
    38    36    37    1
    39    42    41   ar
    40    42    44   ar
    41    41    43   ar
    42     8    10   ar
    43    22    23   ar
    44    37    38    1
    45   106   105   ar
    46    44    45   ar
    47    74    73    2
    48    73    72    1
    49    43    45   ar
    50    43    46   ar
    51    72    75    1
    52    39    38    2
    53   105   107   ar
    54   105   104    1
    55    45    47   ar
    56    46    48   ar
    57    56    58   ar
    58    56    55   ar
    59    58    59   ar
    60    75    76    1
    61    75    77    1
    62    76    78    1
    63   104   103    1
    64    47    49   ar
    65    48    49   ar
    66    59    57   ar
    67    55    54    1
    68    55    57   ar
    69    54    51    1
    70   103   100    1
    71    50    51    1
    72   112   109    1
    73   112   113    1
    74    51    52    1
    75   100    99    1
    76   100   101    1
    77   109   108    1
    78   109   110    1
    79   113   114    1
    80   108   101   am
    81   108   114    1
    82   101   102    2
    83   110   111    2
    84    52    60   am
    85    52    53    2
    86    91    88    1
    87    91    92    1
    88    68    66   ar
    89    68    70   ar
    90    66    65   ar
    91    60    61    1
    92   144   145   ar
    93   144   142   ar
    94   145   143   ar
    95    88    89    1
    96    88    87    1
    97   142   140   ar
    98    92    94   ar
    99    92    93   ar
   100   143   141   ar
   101   140   141   ar
   102   140   139    1
   103    94    96   ar
   104    63    62    2
   105    93    95   ar
   106   139   136    1
   107    70    69   ar
   108    89    90    2
   109    65    64    1
   110    65    67   ar
   111    64    61    1
   112    61    62    1
   113    85    84    2
   114    96    97   ar
   115   121   119    1
   116    95    97   ar
   117    97    98    1
   118    69    67   ar
   119   136   137    1
   120   136   135    1
   121   120   119    1
   122    84    86   am
   123    84    83    1
   124   138   137    2
   125   119   116    1
   126   135   129   am
   127   123   126    1
   128   123   124    1
   129   123   122    1
   130    79    80    1
   131    83    80    1
   132   116   115    1
   133   116   117    1
   134   124   127   am
   135   124   125    2
   136   127   128    1
   137   129   128    1
   138   129   130    2
   139    80    81    1
   140   131   128    1
   141   131   132    1
   142   117   118    2
   143    81    82    2
   144   132   134   ar
   145   132   133   ar
