@<TRIPOS>MOLECULE
tmp/1q19D01.pdb
 112 106 0 0 0
SMALL
GASTEIGER

@<TRIPOS>ATOM
      1  N         -4.9760   -1.0910    9.5440 N.3   318  LEU318     -0.1245
      2  CA        -6.0290   -1.8260   10.2320 C.3   318  LEU318      0.1561
      3  C         -6.8350   -0.9300   11.1720 C.2   318  LEU318      0.2260
      4  O         -8.0730   -0.9960   11.2130 O.2   318  LEU318     -0.2867
      5  CB        -5.4270   -2.9970   11.0100 C.3   318  LEU318      0.0270
      6  CG        -6.4310   -3.8820   11.7530 C.3   318  LEU318      0.0019
      7  CD1       -7.3160   -4.6020   10.7480 C.3   318  LEU318      0.0001
      8  CD2       -5.6790   -4.8920   12.6270 C.3   318  LEU318      0.0001
      9  N        -10.9090   -0.2780   11.0390 N.3   322  ILE322     -0.1245
     10  CA       -11.7970   -0.6050   12.1530 C.3   322  ILE322      0.1561
     11  C        -12.5310    0.6280   12.6670 C.2   322  ILE322      0.2260
     12  O        -13.7200    0.5710   12.9580 O.2   322  ILE322     -0.2867
     13  CB       -11.0050   -1.2440   13.3190 C.3   322  ILE322      0.0252
     14  CG1      -10.5660   -2.6600   12.9230 C.3   322  ILE322      0.0019
     15  CG2      -11.8470   -1.2610   14.5910 C.3   322  ILE322      0.0019
     16  CD1       -9.6220   -3.3120   13.9170 C.3   322  ILE322      0.0001
     17  N        -17.9420   -2.1630   23.4200 N.3   343  GLY343     -0.1210
     18  CA       -17.3690   -3.3890   23.9420 C.3   343  GLY343      0.1956
     19  C        -16.0080   -3.5520   23.2940 C.2   343  GLY343      0.2612
     20  O        -15.4670   -4.6510   23.2090 O.2   343  GLY343     -0.2717
     21  N        -15.4520   -2.4360   22.8330 N.am  344  TYR344     -0.1962
     22  CA       -14.1500   -2.4060   22.1590 C.3   344  TYR344      0.1771
     23  C        -12.9940   -2.8560   23.0490 C.2   344  TYR344      0.2620
     24  O        -12.8810   -2.4410   24.2010 O.2   344  TYR344     -0.2715
     25  CB       -13.8700   -0.9840   21.6540 C.3   344  TYR344      0.0574
     26  CG       -12.7740   -0.8640   20.6170 C.ar  344  TYR344     -0.0198
     27  CD1      -11.4270   -0.9980   20.9560 C.ar  344  TYR344     -0.0009
     28  CD2      -13.0910   -0.5600   19.2890 C.ar  344  TYR344     -0.0009
     29  CE1      -10.4190   -0.8230   19.9970 C.ar  344  TYR344      0.0417
     30  CE2      -12.0990   -0.3840   18.3250 C.ar  344  TYR344      0.0417
     31  CZ       -10.7760   -0.5110   18.6800 C.ar  344  TYR344      0.1957
     32  OH        -9.8250   -0.2860   17.7210 O.3   344  TYR344     -0.2866
     33  N        -12.1400   -3.7080   22.4980 N.am  345  GLY345     -0.1940
     34  CA       -10.9910   -4.1970   23.2340 C.3   345  GLY345      0.2014
     35  C        -11.2130   -5.4500   24.0500 C.2   345  GLY345      0.2640
     36  O        -10.2640   -6.0860   24.4860 O.2   345  GLY345     -0.2714
     37  N        -12.4670   -5.8130   24.2580 N.am  346  SER346     -0.1935
     38  CA       -12.7870   -6.9900   25.0480 C.3   346  SER346      0.2055
     39  C        -12.1490   -8.2820   24.5290 C.2   346  SER346      0.2643
     40  O        -11.7310   -9.1420   25.3180 O.2   346  SER346     -0.2714
     41  CB       -14.3030   -7.1620   25.1300 C.3   346  SER346      0.2130
     42  OG       -14.6240   -8.2800   25.9370 O.3   346  SER346     -0.2179
     43  N        -12.0850   -8.4220   23.2110 N.am  347  ASP347     -0.1957
     44  CA       -11.5070   -9.6090   22.6060 C.3   347  ASP347      0.1840
     45  C        -10.0170   -9.7640   22.9070 C.2   347  ASP347      0.2621
     46  O         -9.5120  -10.8890   22.9570 O.2   347  ASP347     -0.2715
     47  CB       -11.7360   -9.5890   21.0890 C.3   347  ASP347      0.1450
     48  CG       -13.1880   -9.8850   20.7130 C.2   347  ASP347      0.3671
     49  OD1      -13.7250   -9.1850   19.8260 O.co2 347  ASP347     -0.2456
     50  OD2      -13.7900  -10.8200   21.2980 O.co2 347  ASP347     -0.2456
     51  N         -9.3140   -8.6460   23.1100 N.am  348  LEU348     -0.1977
     52  CA        -7.8810   -8.6920   23.4070 C.3   348  LEU348      0.1596
     53  C         -7.6080   -9.1030   24.8520 C.2   348  LEU348      0.2287
     54  O         -6.4950   -9.4830   25.1940 O.2   348  LEU348     -0.2864
     55  CB        -7.2370   -7.3350   23.1480 C.3   348  LEU348      0.0297
     56  CG        -7.5000   -6.7170   21.7730 C.3   348  LEU348      0.0022
     57  CD1       -6.8260   -5.3530   21.6700 C.3   348  LEU348      0.0001
     58  CD2       -6.9800   -7.6430   20.6900 C.3   348  LEU348      0.0001
     59  N         -9.8870  -12.8300   19.9340 N.3   353  ILE353     -0.1245
     60  CA        -9.1420  -12.9400   18.6920 C.3   353  ILE353      0.1561
     61  C         -8.4750  -14.2990   18.5390 C.2   353  ILE353      0.2260
     62  O         -7.6750  -14.5000   17.6260 O.2   353  ILE353     -0.2867
     63  CB        -8.0600  -11.8270   18.5490 C.3   353  ILE353      0.0252
     64  CG1       -6.9920  -11.9690   19.6390 C.3   353  ILE353      0.0019
     65  CG2       -8.7170  -10.4530   18.5890 C.3   353  ILE353      0.0019
     66  CD1       -5.8550  -10.9710   19.5070 C.3   353  ILE353      0.0001
     67  N         -1.1870   -7.5660   21.5690 N.3   370  GLN370     -0.1245
     68  CA        -2.1990   -6.7480   20.8970 C.3   370  GLN370      0.1566
     69  C         -2.6150   -5.5880   21.7960 C.2   370  GLN370      0.2260
     70  O         -2.8150   -4.4660   21.3230 O.2   370  GLN370     -0.2867
     71  CB        -3.4320   -7.5880   20.5490 C.3   370  GLN370      0.0367
     72  CG        -3.1950   -8.6350   19.4590 C.3   370  GLN370      0.0905
     73  CD        -2.6170   -8.0260   18.1910 C.2   370  GLN370      0.2608
     74  OE1       -3.1180   -7.0170   17.6830 O.2   370  GLN370     -0.2717
     75  NE2       -1.5590   -8.6380   17.6710 N.am  370  GLN370     -0.0878
     76  N         -0.2230   -2.9970   21.3280 N.3   373  ARG373     -0.1231
     77  CA        -0.3150   -2.3700   20.0130 C.3   373  ARG373      0.1694
     78  C         -1.2520   -1.1520   19.9780 C.2   373  ARG373      0.2592
     79  O         -0.9670   -0.1700   19.2970 O.2   373  ARG373     -0.2718
     80  CB        -0.7660   -3.4060   18.9780 C.3   373  ARG373      0.0321
     81  CG        -0.6120   -2.9480   17.5370 C.3   373  ARG373      0.0489
     82  CD        -0.9160   -4.0760   16.5700 C.3   373  ARG373      0.2205
     83  NE        -0.4750   -3.7270   15.2260 N.pl3 373  ARG373     -0.0865
     84  CZ        -1.1030   -2.8790   14.4150 C.cat 373  ARG373      0.5346
     85  NH1       -2.2290   -2.2850   14.7930 N.pl3 373  ARG373      0.1354
     86  NH2       -0.5770   -2.5990   13.2350 N.pl3 373  ARG373      0.1354
     87  N         -2.3550   -1.2140   20.7230 N.am  374  THR374     -0.1953
     88  CA        -3.3220   -0.1170   20.7520 C.3   374  THR374      0.1897
     89  C         -2.7880    1.1790   21.3420 C.2   374  THR374      0.2313
     90  O         -3.4820    2.1920   21.3170 O.2   374  THR374     -0.2863
     91  CB        -4.5830   -0.4680   21.5610 C.3   374  THR374      0.1794
     92  OG1       -4.2890   -0.4020   22.9660 O.3   374  THR374     -0.2208
     93  CG2       -5.0700   -1.8640   21.2050 C.3   374  THR374      0.0378
     94  N         -6.2050    4.4790   18.0250 N.3   379  GLU379     -0.1245
     95  CA        -7.5520    3.9260   18.1360 C.3   379  GLU379      0.1567
     96  C         -8.3070    4.4860   19.3240 C.2   379  GLU379      0.2260
     97  O         -9.5220    4.6870   19.2580 O.2   379  GLU379     -0.2867
     98  CB        -7.5060    2.4190   18.3500 C.3   379  GLU379      0.0388
     99  CG        -6.7050    1.6440   17.3710 C.3   379  GLU379      0.1160
    100  CD        -6.3960    0.2600   17.8940 C.2   379  GLU379      0.3649
    101  OE1       -7.3480   -0.4880   18.2010 O.co2 379  GLU379     -0.2457
    102  OE2       -5.2000   -0.0700   18.0040 O.co2 379  GLU379     -0.2457
    103  N        -15.0170   -4.6840   11.1990 N.3   446  HIS446     -0.1241
    104  CA       -14.6010   -4.6090    9.8090 C.3   446  HIS446      0.1621
    105  C        -14.9380   -5.8820    9.0300 C.2   446  HIS446      0.2264
    106  O        -15.0890   -5.8540    7.8040 O.2   446  HIS446     -0.2867
    107  CB       -13.0950   -4.3360    9.7460 C.3   446  HIS446      0.0745
    108  CG       -12.2810   -5.2420   10.6230 C.ar  446  HIS446      0.0817
    109  ND1      -12.6330   -5.5280   11.9260 N.ar  446  HIS446     -0.2268
    110  CD2      -11.1180   -5.8980   10.3930 C.ar  446  HIS446      0.1154
    111  CE1      -11.7210   -6.3210   12.4590 C.ar  446  HIS446      0.1986
    112  NE2      -10.7920   -6.5610   11.5510 N.ar  446  HIS446     -0.2212
@<TRIPOS>BOND
     1   106   105    2
     2   105   104    1
     3     1     2    1
     4   107   104    1
     5   107   108    1
     6   104   103    1
     7     2     5    1
     8     2     3    1
     9   110   108   ar
    10   110   112   ar
    11   108   109   ar
    12     7     6    1
    13     5     6    1
    14     9    10    1
    15     3     4    2
    16   112   111   ar
    17     6     8    1
    18   109   111   ar
    19    10    11    1
    20    10    13    1
    21    11    12    2
    22    14    13    1
    23    14    16    1
    24    86    84    1
    25    13    15    1
    26    84    85    1
    27    84    83    2
    28    83    82    1
    29    82    81    1
    30    99   100    1
    31    99    98    1
    32    81    80    1
    33    62    61    2
    34    75    73   am
    35    74    73    2
    36    32    31    1
    37   100   102   ar
    38   100   101   ar
    39    94    95    1
    40    95    98    1
    41    95    96    1
    42    73    72    1
    43    30    31   ar
    44    30    28   ar
    45    61    60    1
    46    63    65    1
    47    63    60    1
    48    63    64    1
    49    31    29   ar
    50    60    59    1
    51    80    77    1
    52    97    96    2
    53    28    26   ar
    54    79    78    2
    55    72    71    1
    56    66    64    1
    57    49    48   ar
    58    78    77    1
    59    78    87   am
    60    29    27   ar
    61    77    76    1
    62    71    68    1
    63    26    27   ar
    64    26    25    1
    65    58    56    1
    66    48    47    1
    67    48    50   ar
    68    87    88    1
    69    88    89    1
    70    88    91    1
    71    68    67    1
    72    68    69    1
    73    47    44    1
    74    93    91    1
    75    90    89    2
    76    70    69    2
    77    91    92    1
    78    25    22    1
    79    57    56    1
    80    56    55    1
    81    22    21    1
    82    22    23    1
    83    33    23   am
    84    33    34    1
    85    44    45    1
    86    44    43    1
    87    21    19   am
    88    45    46    2
    89    45    51   am
    90    23    24    2
    91    51    52    1
    92    55    52    1
    93    20    19    2
    94    43    39   am
    95    34    35    1
    96    19    18    1
    97    52    53    1
    98    17    18    1
    99    35    37   am
   100    35    36    2
   101    37    38    1
   102    39    38    1
   103    39    40    2
   104    53    54    2
   105    38    41    1
   106    41    42    1
