@<TRIPOS>MOLECULE
tmp/1q19D00.pdb
 208 199 0 0 0
SMALL
GASTEIGER

@<TRIPOS>ATOM
      1  N        -22.9110    1.7810   20.4530 N.3   243  PRO243     -0.2102
      2  CA       -22.8470    1.1880   19.1110 C.3   243  PRO243      0.1504
      3  C        -23.0470   -0.3120   19.3300 C.2   243  PRO243      0.2576
      4  O        -22.1470   -0.9770   19.8360 O.2   243  PRO243     -0.2718
      5  CB       -21.4280    1.5170   18.6520 C.3   243  PRO243      0.0282
      6  CG       -21.1240    2.8060   19.3740 C.3   243  PRO243      0.0208
      7  CD       -21.6810    2.5330   20.7570 C.3   243  PRO243      0.0893
      8  N        -24.2250   -0.8360   18.9810 N.am  244  LEU244     -0.1966
      9  CA       -24.5280   -2.2560   19.1810 C.3   244  LEU244      0.1728
     10  C        -24.2960   -3.0960   17.9220 C.2   244  LEU244      0.2616
     11  O        -24.8560   -2.8010   16.8630 O.2   244  LEU244     -0.2715
     12  CB       -25.9840   -2.4070   19.6290 C.3   244  LEU244      0.0311
     13  CG       -26.3420   -3.5300   20.6030 C.3   244  LEU244      0.0022
     14  CD1      -27.8600   -3.7010   20.6070 C.3   244  LEU244      0.0001
     15  CD2      -25.6650   -4.8270   20.2080 C.3   244  LEU244      0.0001
     16  N        -23.4850   -4.1460   18.0370 N.am  245  SER245     -0.1950
     17  CA       -23.1940   -5.0120   16.8900 C.3   245  SER245      0.1924
     18  C        -23.9150   -6.3570   16.9740 C.2   245  SER245      0.2314
     19  O        -24.0620   -7.0580   15.9730 O.2   245  SER245     -0.2863
     20  CB       -21.6910   -5.2820   16.7920 C.3   245  SER245      0.2116
     21  OG       -21.2770   -6.2170   17.7790 O.3   245  SER245     -0.2180
     22  N        -22.7480   -8.4290   18.9860 N.3   247  GLY247     -0.1210
     23  CA       -21.6430   -9.2270   19.4740 C.3   247  GLY247      0.1956
     24  C        -21.7800   -9.4320   20.9660 C.2   247  GLY247      0.2612
     25  O        -22.5080   -8.7070   21.6420 O.2   247  GLY247     -0.2717
     26  N        -21.0750  -10.4190   21.4900 N.am  248  LEU248     -0.1965
     27  CA       -21.1390  -10.7240   22.9060 C.3   248  LEU248      0.1728
     28  C        -20.8190   -9.5180   23.8010 C.2   248  LEU248      0.2616
     29  O        -21.5780   -9.1860   24.7130 O.2   248  LEU248     -0.2715
     30  CB       -20.1860  -11.8890   23.1980 C.3   248  LEU248      0.0311
     31  CG       -20.0340  -12.4960   24.5990 C.3   248  LEU248      0.0022
     32  CD1      -18.9110  -11.8170   25.3250 C.3   248  LEU248      0.0001
     33  CD2      -21.3400  -12.4080   25.3660 C.3   248  LEU248      0.0001
     34  N        -19.7100   -8.8490   23.5140 N.am  249  ASP249     -0.1957
     35  CA       -19.2490   -7.7170   24.3100 C.3   249  ASP249      0.1840
     36  C        -20.1250   -6.4700   24.2450 C.2   249  ASP249      0.2622
     37  O        -20.5270   -5.9320   25.2730 O.2   249  ASP249     -0.2715
     38  CB       -17.8210   -7.3900   23.8970 C.3   249  ASP249      0.1450
     39  CG       -16.9860   -8.6430   23.7070 C.2   249  ASP249      0.3671
     40  OD1      -16.7880   -9.3850   24.6990 O.co2 249  ASP249     -0.2456
     41  OD2      -16.5430   -8.8930   22.5630 O.co2 249  ASP249     -0.2456
     42  N        -20.4040   -6.0090   23.0350 N.am  250  SER250     -0.1950
     43  CA       -21.2470   -4.8400   22.8340 C.3   250  SER250      0.1924
     44  C        -22.6230   -5.0700   23.4650 C.2   250  SER250      0.2314
     45  O        -23.2390   -4.1400   23.9920 O.2   250  SER250     -0.2863
     46  CB       -21.4060   -4.5780   21.3370 C.3   250  SER250      0.2116
     47  OG       -22.1540   -3.4070   21.1040 O.3   250  SER250     -0.2180
     48  N        -27.0890    1.8770   18.2740 N.3   267  TYR267     -0.1227
     49  CA       -26.8760    2.1680   16.8570 C.3   267  TYR267      0.1736
     50  C        -26.0740    1.0700   16.1670 C.2   267  TYR267      0.2596
     51  O        -25.0010    0.7000   16.6370 O.2   267  TYR267     -0.2718
     52  CB       -26.1230    3.4900   16.6880 C.3   267  TYR267      0.0548
     53  CG       -26.7770    4.6760   17.3530 C.ar  267  TYR267     -0.0200
     54  CD1      -26.7920    4.8030   18.7430 C.ar  267  TYR267     -0.0009
     55  CD2      -27.3990    5.6730   16.5920 C.ar  267  TYR267     -0.0009
     56  CE1      -27.4100    5.8910   19.3640 C.ar  267  TYR267      0.0417
     57  CE2      -28.0190    6.7620   17.1980 C.ar  267  TYR267      0.0417
     58  CZ       -28.0230    6.8640   18.5840 C.ar  267  TYR267      0.1957
     59  OH       -28.6470    7.9270   19.1890 O.3   267  TYR267     -0.2866
     60  N        -26.5910    0.5650   15.0480 N.am  268  SER268     -0.1938
     61  CA       -25.9150   -0.4800   14.2800 C.3   268  SER268      0.2055
     62  C        -25.6810   -0.0290   12.8430 C.2   268  SER268      0.2642
     63  O        -26.4560    0.7540   12.3000 O.2   268  SER268     -0.2714
     64  CB       -26.7490   -1.7600   14.2650 C.3   268  SER268      0.2130
     65  OG       -27.0560   -2.1920   15.5780 O.3   268  SER268     -0.2179
     66  N        -24.6090   -0.5200   12.2310 N.am  269  ILE269     -0.1977
     67  CA       -24.3040   -0.1720   10.8500 C.3   269  ILE269      0.1596
     68  C        -23.8030   -1.3710   10.0650 C.2   269  ILE269      0.2287
     69  O        -23.2820   -2.3320   10.6350 O.2   269  ILE269     -0.2864
     70  CB       -23.2620    0.9720   10.7510 C.3   269  ILE269      0.0276
     71  CG1      -21.9800    0.6160   11.5150 C.3   269  ILE269      0.0022
     72  CG2      -23.8710    2.2610   11.2670 C.3   269  ILE269      0.0022
     73  CD1      -20.9210   -0.0770   10.6750 C.3   269  ILE269      0.0001
     74  N        -24.8060   -7.1300   10.5190 N.3   276  GLU276     -0.1245
     75  CA       -25.0590   -7.9600   11.6900 C.3   276  GLU276      0.1567
     76  C        -26.3790   -7.5670   12.3510 C.2   276  GLU276      0.2260
     77  O        -26.6790   -7.9850   13.4760 O.2   276  GLU276     -0.2867
     78  CB       -23.8900   -7.8200   12.6810 C.3   276  GLU276      0.0388
     79  CG       -22.5600   -8.3880   12.1670 C.3   276  GLU276      0.1160
     80  CD       -21.3730   -8.0310   13.0560 C.2   276  GLU276      0.3649
     81  OE1      -20.6780   -7.0330   12.7610 O.co2 276  GLU276     -0.2457
     82  OE2      -21.1370   -8.7440   14.0530 O.co2 276  GLU276     -0.2457
     83  N        -10.9090   -0.2780   11.0390 N.3   322  ILE322     -0.1245
     84  CA       -11.7970   -0.6050   12.1530 C.3   322  ILE322      0.1561
     85  C        -12.5310    0.6280   12.6670 C.2   322  ILE322      0.2260
     86  O        -13.7200    0.5710   12.9580 O.2   322  ILE322     -0.2867
     87  CB       -11.0050   -1.2440   13.3190 C.3   322  ILE322      0.0252
     88  CG1      -10.5660   -2.6600   12.9230 C.3   322  ILE322      0.0019
     89  CG2      -11.8470   -1.2610   14.5910 C.3   322  ILE322      0.0019
     90  CD1       -9.6220   -3.3120   13.9170 C.3   322  ILE322      0.0001
     91  N        -16.2430    2.1790   11.0670 N.3   325  GLY325     -0.1210
     92  CA       -17.6050    1.9310   11.5100 C.3   325  GLY325      0.1956
     93  C        -18.0500    2.8660   12.6260 C.2   325  GLY325      0.2611
     94  O        -19.1390    3.4490   12.5680 O.2   325  GLY325     -0.2717
     95  N        -17.2030    3.0230   13.6430 N.am  326  LEU326     -0.1979
     96  CA       -17.5290    3.8860   14.7700 C.3   326  LEU326      0.1596
     97  C        -17.7460    5.3430   14.3360 C.2   326  LEU326      0.2287
     98  O        -18.6590    6.0200   14.8350 O.2   326  LEU326     -0.2864
     99  CB       -16.4230    3.7970   15.8320 C.3   326  LEU326      0.0297
    100  CG       -16.2290    2.3870   16.4060 C.3   326  LEU326      0.0022
    101  CD1      -15.0550    2.3610   17.3860 C.3   326  LEU326      0.0001
    102  CD2      -17.5090    1.9480   17.0860 C.3   326  LEU326      0.0001
    103  N        -21.1280    5.7670   13.1130 N.3   329  VAL329     -0.1245
    104  CA       -22.1020    5.7230   14.2030 C.3   329  VAL329      0.1561
    105  C        -22.1400    7.0720   14.9290 C.2   329  VAL329      0.2260
    106  O        -23.1890    7.5050   15.3920 O.2   329  VAL329     -0.2867
    107  CB       -21.7530    4.6020   15.2210 C.3   329  VAL329      0.0252
    108  CG1      -22.6410    4.7000   16.4540 C.3   329  VAL329      0.0019
    109  CG2      -21.9210    3.2410   14.5620 C.3   329  VAL329      0.0019
    110  N        -18.8660    1.2130   24.4540 N.3   342  THR342     -0.1203
    111  CA       -18.5880    0.1620   23.4840 C.3   342  THR342      0.1994
    112  C        -18.0100   -1.0600   24.1660 C.2   342  THR342      0.2618
    113  O        -17.6400   -1.0000   25.3390 O.2   342  THR342     -0.2717
    114  CB       -17.5400    0.5950   22.4670 C.3   342  THR342      0.1784
    115  OG1      -16.2580    0.5810   23.1040 O.3   342  THR342     -0.2211
    116  CG2      -17.8370    1.9920   21.9340 C.3   342  THR342      0.0376
    117  N        -17.9420   -2.1630   23.4200 N.am  343  GLY343     -0.1942
    118  CA       -17.3690   -3.3890   23.9420 C.3   343  GLY343      0.2014
    119  C        -16.0080   -3.5520   23.2940 C.2   343  GLY343      0.2639
    120  O        -15.4670   -4.6510   23.2090 O.2   343  GLY343     -0.2714
    121  N        -15.4520   -2.4360   22.8330 N.am  344  TYR344     -0.1959
    122  CA       -14.1500   -2.4060   22.1590 C.3   344  TYR344      0.1771
    123  C        -12.9940   -2.8560   23.0490 C.2   344  TYR344      0.2620
    124  O        -12.8810   -2.4410   24.2010 O.2   344  TYR344     -0.2715
    125  CB       -13.8700   -0.9840   21.6540 C.3   344  TYR344      0.0574
    126  CG       -12.7740   -0.8640   20.6170 C.ar  344  TYR344     -0.0198
    127  CD1      -11.4270   -0.9980   20.9560 C.ar  344  TYR344     -0.0009
    128  CD2      -13.0910   -0.5600   19.2890 C.ar  344  TYR344     -0.0009
    129  CE1      -10.4190   -0.8230   19.9970 C.ar  344  TYR344      0.0417
    130  CE2      -12.0990   -0.3840   18.3250 C.ar  344  TYR344      0.0417
    131  CZ       -10.7760   -0.5110   18.6800 C.ar  344  TYR344      0.1957
    132  OH        -9.8250   -0.2860   17.7210 O.3   344  TYR344     -0.2866
    133  N        -12.1400   -3.7080   22.4980 N.am  345  GLY345     -0.1954
    134  CA       -10.9910   -4.1970   23.2340 C.3   345  GLY345      0.1869
    135  C        -11.2130   -5.4500   24.0500 C.2   345  GLY345      0.2309
    136  O        -10.2640   -6.0860   24.4860 O.2   345  GLY345     -0.2863
    137  N        -12.0850   -8.4220   23.2110 N.3   347  ASP347     -0.1239
    138  CA       -11.5070   -9.6090   22.6060 C.3   347  ASP347      0.1674
    139  C        -10.0170   -9.7640   22.9070 C.2   347  ASP347      0.2266
    140  O         -9.5120  -10.8890   22.9570 O.2   347  ASP347     -0.2867
    141  CB       -11.7360   -9.5890   21.0890 C.3   347  ASP347      0.1410
    142  CG       -13.1880   -9.8850   20.7130 C.2   347  ASP347      0.3668
    143  OD1      -13.7250   -9.1850   19.8260 O.co2 347  ASP347     -0.2456
    144  OD2      -13.7900  -10.8200   21.2980 O.co2 347  ASP347     -0.2456
    145  N        -13.3320  -16.8770   25.2890 N.3   420  LYS420     -0.1245
    146  CA       -13.9760  -15.9100   26.1810 C.3   420  LYS420      0.1561
    147  C        -14.9250  -16.6420   27.1220 C.2   420  LYS420      0.2260
    148  O        -15.9440  -16.0860   27.5560 O.2   420  LYS420     -0.2867
    149  CB       -14.7520  -14.8900   25.3430 C.3   420  LYS420      0.0271
    150  CG       -13.8960  -14.2460   24.2530 C.3   420  LYS420      0.0035
    151  CD       -14.7390  -13.6530   23.1470 C.3   420  LYS420      0.0206
    152  CE       -15.2920  -12.3010   23.5230 C.3   420  LYS420      0.1093
    153  NZ       -16.0900  -11.7360   22.3960 N.3   420  LYS420     -0.1314
    154  N        -22.4620  -16.3860   20.6470 N.3   440  ARG440     -0.1231
    155  CA       -22.2360  -16.0060   19.2580 C.3   440  ARG440      0.1694
    156  C        -20.7470  -15.8210   19.0050 C.2   440  ARG440      0.2592
    157  O        -20.1070  -14.9720   19.6080 O.2   440  ARG440     -0.2718
    158  CB       -22.9920  -14.7110   18.9600 C.3   440  ARG440      0.0321
    159  CG       -22.7270  -14.0820   17.5930 C.3   440  ARG440      0.0489
    160  CD       -23.7890  -13.0190   17.3060 C.3   440  ARG440      0.2205
    161  NE       -23.3340  -11.9430   16.4280 N.pl3 440  ARG440     -0.0865
    162  CZ       -22.8150  -12.1200   15.2190 C.cat 440  ARG440      0.5346
    163  NH1      -22.4420  -11.0700   14.5020 N.pl3 440  ARG440      0.1354
    164  NH2      -22.6560  -13.3430   14.7260 N.pl3 440  ARG440      0.1354
    165  N        -20.1890  -16.6240   18.1120 N.am  441  LYS441     -0.1966
    166  CA       -18.7720  -16.5230   17.7960 C.3   441  LYS441      0.1728
    167  C        -18.3250  -15.1190   17.4060 C.2   441  LYS441      0.2616
    168  O        -19.0390  -14.3940   16.7110 O.2   441  LYS441     -0.2715
    169  CB       -18.4080  -17.5160   16.6920 C.3   441  LYS441      0.0311
    170  CG       -18.0170  -18.8730   17.2470 C.3   441  LYS441      0.0038
    171  CD       -17.6700  -19.8750   16.1600 C.3   441  LYS441      0.0206
    172  CE       -16.9920  -21.0860   16.7800 C.3   441  LYS441      0.1093
    173  NZ       -17.6720  -21.4810   18.0480 N.3   441  LYS441     -0.1314
    174  N        -17.1330  -14.7490   17.8680 N.am  442  LYS442     -0.1963
    175  CA       -16.5520  -13.4390   17.6010 C.3   442  LYS442      0.1728
    176  C        -16.5310  -13.0820   16.1170 C.2   442  LYS442      0.2616
    177  O        -16.2080  -13.9060   15.2700 O.2   442  LYS442     -0.2715
    178  CB       -15.1260  -13.3820   18.1770 C.3   442  LYS442      0.0311
    179  CG       -14.0110  -13.0740   17.1650 C.3   442  LYS442      0.0038
    180  CD       -13.8820  -11.5820   16.8870 C.3   442  LYS442      0.0206
    181  CE       -13.0280  -11.3100   15.6510 C.3   442  LYS442      0.1093
    182  NZ       -11.6690  -11.8710   15.7660 N.3   442  LYS442     -0.1314
    183  N        -16.8900  -11.8380   15.8210 N.am  443  ILE443     -0.1963
    184  CA       -16.8900  -11.3200   14.4570 C.3   443  ILE443      0.1727
    185  C        -16.5940   -9.8250   14.5370 C.2   443  ILE443      0.2617
    186  O        -17.4220   -9.0360   14.9980 O.2   443  ILE443     -0.2715
    187  CB       -18.2500  -11.5230   13.7480 C.3   443  ILE443      0.0290
    188  CG1      -18.5600  -13.0150   13.6180 C.3   443  ILE443      0.0022
    189  CG2      -18.2010  -10.9040   12.3640 C.3   443  ILE443      0.0023
    190  CD1      -19.9590  -13.3180   13.1230 C.3   443  ILE443      0.0001
    191  N        -15.4020   -9.4480   14.0900 N.am  444  GLY444     -0.1940
    192  CA       -14.9940   -8.0570   14.1260 C.3   444  GLY444      0.2014
    193  C        -15.8790   -7.0990   13.3490 C.2   444  GLY444      0.2638
    194  O        -16.6190   -7.5010   12.4460 O.2   444  GLY444     -0.2714
    195  N        -15.7850   -5.8200   13.7040 N.am  445  ILE445     -0.1977
    196  CA       -16.5540   -4.7650   13.0660 C.3   445  ILE445      0.1596
    197  C        -16.2930   -4.6970   11.5660 C.2   445  ILE445      0.2287
    198  O        -17.2290   -4.6440   10.7690 O.2   445  ILE445     -0.2864
    199  CB       -16.2090   -3.3930   13.6740 C.3   445  ILE445      0.0276
    200  CG1      -16.9680   -2.2900   12.9330 C.3   445  ILE445      0.0022
    201  CG2      -14.7080   -3.1520   13.6120 C.3   445  ILE445      0.0022
    202  CD1      -16.6510   -0.8970   13.4220 C.3   445  ILE445      0.0001
    203  N        -19.1410   -6.4120    8.5410 N.3   449  SER449     -0.1217
    204  CA       -19.7450   -5.5090    7.5680 C.3   449  SER449      0.1889
    205  C        -18.9260   -5.4960    6.2770 C.2   449  SER449      0.2288
    206  O        -19.1210   -4.6430    5.4090 O.2   449  SER449     -0.2866
    207  CB       -19.8340   -4.0950    8.1440 C.3   449  SER449      0.2089
    208  OG       -18.5440   -3.5520    8.3390 O.3   449  SER449     -0.2183
@<TRIPOS>BOND
     1   206   205    2
     2   205   204    1
     3   204   207    1
     4   204   203    1
     5   207   208    1
     6    68    69    2
     7    68    67    1
     8    74    75    1
     9    73    71    1
    10    70    67    1
    11    70    72    1
    12    70    71    1
    13   198   197    2
    14    67    66    1
    15    83    84    1
    16    91    92    1
    17    92    93    1
    18   197   196    1
    19    75    76    1
    20    75    78    1
    21    84    85    1
    22    84    87    1
    23    79    78    1
    24    79    80    1
    25    66    62   am
    26    63    62    2
    27    76    77    2
    28   189   187    1
    29   194   193    2
    30    94    93    2
    31    93    95   am
    32    85    86    2
    33    81    80   ar
    34    62    61    1
    35    88    87    1
    36    88    90    1
    37   200   202    1
    38   200   199    1
    39    80    82   ar
    40   196   199    1
    41   196   195    1
    42   103   104    1
    43   190   188    1
    44    87    89    1
    45   193   195   am
    46   193   192    1
    47   201   199    1
    48   188   187    1
    49    95    96    1
    50   187   184    1
    51   191   192    1
    52   191   185   am
    53   104   105    1
    54   104   107    1
    55    64    61    1
    56    64    65    1
    57    61    60    1
    58    97    96    1
    59    97    98    2
    60   184   185    1
    61   184   183    1
    62   163   162    1
    63   185   186    2
    64   109   107    1
    65   164   162    1
    66    96    99    1
    67   105   106    2
    68    60    50   am
    69   162   161    2
    70   107   108    1
    71   177   176    2
    72   181   182    1
    73   181   180    1
    74   183   176   am
    75    99   100    1
    76    19    18    2
    77   176   175    1
    78   171   172    1
    79   171   170    1
    80    50    51    2
    81    50    49    1
    82   100   102    1
    83   100   101    1
    84   161   160    1
    85    55    57   ar
    86    55    53   ar
    87    52    49    1
    88    52    53    1
    89   169   170    1
    90   169   166    1
    91   168   167    2
    92   172   173    1
    93    20    17    1
    94    20    21    1
    95    49    48    1
    96    11    10    2
    97   180   179    1
    98    17    18    1
    99    17    16    1
   100   179   178    1
   101    57    58   ar
   102   160   159    1
   103    53    54   ar
   104   167   166    1
   105   167   174   am
   106   159   158    1
   107   175   174    1
   108   175   178    1
   109   132   131    1
   110   166   165    1
   111    10    16   am
   112    10     9    1
   113   165   156   am
   114   130   131   ar
   115   130   128   ar
   116    58    59    1
   117    58    56   ar
   118     5     2    1
   119     5     6    1
   120   131   129   ar
   121    54    56   ar
   122   158   155    1
   123     8     9    1
   124     8     3   am
   125    22    23    1
   126   156   155    1
   127   156   157    2
   128     2     3    1
   129     2     1    1
   130     9    12    1
   131   155   154    1
   132   128   126   ar
   133     3     4    2
   134     6     7    1
   135    23    24    1
   136    12    13    1
   137   143   142   ar
   138   129   127   ar
   139    15    13    1
   140     1     7    1
   141    13    14    1
   142   126   127   ar
   143   126   125    1
   144   142   141    1
   145   142   144   ar
   146    24    26   am
   147    24    25    2
   148   141   138    1
   149    47    46    1
   150    46    43    1
   151    26    27    1
   152   125   122    1
   153   116   114    1
   154   122   121    1
   155   122   123    1
   156   153   152    1
   157   114   115    1
   158   114   111    1
   159   133   123   am
   160   133   134    1
   161    41    39   ar
   162   138   139    1
   163   138   137    1
   164   121   119   am
   165    43    42    1
   166    43    44    1
   167    27    30    1
   168    27    28    1
   169   139   140    2
   170    42    36   am
   171   123   124    2
   172   151   152    1
   173   151   150    1
   174    30    31    1
   175   120   119    2
   176   134   135    1
   177   119   118    1
   178   117   118    1
   179   117   112   am
   180    44    45    2
   181   111   112    1
   182   111   110    1
   183    34    28   am
   184    34    35    1
   185    39    38    1
   186    39    40   ar
   187    28    29    2
   188    38    35    1
   189   135   136    2
   190   112   113    2
   191    36    35    1
   192    36    37    2
   193   150   149    1
   194    31    32    1
   195    31    33    1
   196   145   146    1
   197   149   146    1
   198   146   147    1
   199   147   148    2
