@<TRIPOS>MOLECULE
tmp/1q1gB00.pdb
 163 157 0 0 0
SMALL
GASTEIGER

@<TRIPOS>ATOM
      1  N         17.3790  -13.6090   95.6860 N.3    21  GLY21      -0.1225
      2  CA        16.9360  -12.7680   94.5900 C.3    21  GLY21       0.1811
      3  C         15.6210  -13.1660   93.9420 C.2    21  GLY21       0.2280
      4  O         14.7350  -12.3290   93.7530 O.2    21  GLY21      -0.2866
      5  N         14.4140  -10.3330   97.1640 N.3    62  HIS62      -0.1226
      6  CA        14.7200   -8.9190   96.9540 C.3    62  HIS62       0.1752
      7  C         14.7520   -8.4410   95.5010 C.2    62  HIS62       0.2597
      8  O         14.8830   -7.2430   95.2460 O.2    62  HIS62      -0.2718
      9  CB        16.0530   -8.5800   97.6380 C.3    62  HIS62       0.0759
     10  CG        17.2200   -9.3500   97.1070 C.ar   62  HIS62       0.0818
     11  ND1       18.1440   -9.9630   97.9260 N.ar   62  HIS62      -0.2268
     12  CD2       17.6220   -9.5970   95.8390 C.ar   62  HIS62       0.1154
     13  CE1       19.0640  -10.5540   97.1870 C.ar   62  HIS62       0.1986
     14  NE2       18.7710  -10.3480   95.9170 N.ar   62  HIS62      -0.2212
     15  N         14.6460   -9.3700   94.5550 N.am   63  GLY63      -0.1942
     16  CA        14.6550   -8.9930   93.1530 C.3    63  GLY63       0.2014
     17  C         16.0460   -8.7930   92.5770 C.2    63  GLY63       0.2638
     18  O         17.0370   -8.8630   93.2900 O.2    63  GLY63      -0.2714
     19  N         16.1150   -8.5420   91.2750 N.am   64  VAL64      -0.1977
     20  CA        17.3870   -8.3350   90.5960 C.3    64  VAL64       0.1596
     21  C         17.7800   -6.8570   90.5850 C.2    64  VAL64       0.2287
     22  O         16.9770   -6.0050   90.2010 O.2    64  VAL64      -0.2864
     23  CB        17.3050   -8.8130   89.1350 C.3    64  VAL64       0.0276
     24  CG1       18.6220   -8.5560   88.4290 C.3    64  VAL64       0.0022
     25  CG2       16.9340  -10.2860   89.0880 C.3    64  VAL64       0.0022
     26  N         22.4330  -12.7730  102.6500 N.3    86  ARG86      -0.1245
     27  CA        22.0230  -12.9500  101.2690 C.3    86  ARG86       0.1563
     28  C         22.5570  -14.2560  100.7020 C.2    86  ARG86       0.2260
     29  O         23.7440  -14.5680  100.8130 O.2    86  ARG86      -0.2867
     30  CB        22.5080  -11.7840  100.3870 C.3    86  ARG86       0.0307
     31  CG        22.4390  -12.0960   98.8900 C.3    86  ARG86       0.0489
     32  CD        22.7620  -10.8930   97.9930 C.3    86  ARG86       0.2205
     33  NE        23.1880  -11.3210   96.6600 N.pl3  86  ARG86      -0.0865
     34  CZ        22.4410  -12.0230   95.8110 C.cat  86  ARG86       0.5346
     35  NH1       21.2050  -12.3820   96.1350 N.pl3  86  ARG86       0.1354
     36  NH2       22.9420  -12.3970   94.6440 N.pl3  86  ARG86       0.1354
     37  N         23.1770  -16.4630   93.5290 N.3    89  SER89      -0.1202
     38  CA        24.1100  -16.9610   92.5330 C.3    89  SER89       0.2020
     39  C         25.0850  -15.8580   92.1540 C.2    89  SER89       0.2619
     40  O         24.8630  -14.6860   92.4610 O.2    89  SER89      -0.2717
     41  CB        23.3530  -17.4400   91.2950 C.3    89  SER89       0.2103
     42  OG        22.4550  -16.4480   90.8380 O.3    89  SER89      -0.2182
     43  N         26.1640  -16.2370   91.4830 N.am   90  CYS90      -0.1955
     44  CA        27.1780  -15.2780   91.0840 C.3    90  CYS90       0.1843
     45  C         27.9830  -15.8520   89.9400 C.2    90  CYS90       0.2626
     46  O         27.8570  -17.0330   89.6110 O.2    90  CYS90      -0.2714
     47  CB        28.1170  -14.9870   92.2510 C.3    90  CYS90       0.0997
     48  SG        29.1090  -16.4190   92.7570 S.3    90  CYS90      -0.0797
     49  N         28.8060  -15.0050   89.3340 N.am   91  GLY91      -0.1954
     50  CA        29.6500  -15.4440   88.2450 C.3    91  GLY91       0.1869
     51  C         31.0540  -15.5170   88.8000 C.2    91  GLY91       0.2309
     52  O         31.3740  -14.8140   89.7570 O.2    91  GLY91      -0.2863
     53  N         28.0600   -5.4030   90.5810 N.3   155  SER155     -0.1217
     54  CA        27.8840   -4.4770   89.4670 C.3   155  SER155      0.1889
     55  C         26.4560   -4.3700   88.9490 C.2   155  SER155      0.2288
     56  O         25.7650   -5.3750   88.7790 O.2   155  SER155     -0.2866
     57  CB        28.8040   -4.8780   88.3150 C.3   155  SER155      0.2089
     58  OG        28.5930   -4.0470   87.1850 O.3   155  SER155     -0.2183
     59  N         25.6860   -3.5820   86.0830 N.3   157  MET157     -0.1230
     60  CA        25.6480   -3.9130   84.6660 C.3   157  MET157      0.1702
     61  C         25.8160   -5.4030   84.4320 C.2   157  MET157      0.2592
     62  O         26.8860   -5.9600   84.6530 O.2   157  MET157     -0.2718
     63  CB        26.7270   -3.1450   83.8960 C.3   157  MET157      0.0401
     64  CG        26.8510   -3.5640   82.4370 C.3   157  MET157      0.0596
     65  SD        27.7990   -2.3930   81.4490 S.3   157  MET157     -0.1393
     66  CE        29.4960   -2.7140   82.0330 C.3   157  MET157      0.0692
     67  N         24.7430   -6.0430   83.9870 N.am  158  TYR158     -0.1976
     68  CA        24.7680   -7.4740   83.7200 C.3   158  TYR158      0.1639
     69  C         25.2150   -7.7030   82.2870 C.2   158  TYR158      0.2290
     70  O         26.0900   -8.5220   82.0280 O.2   158  TYR158     -0.2864
     71  CB        23.3800   -8.0740   83.9260 C.3   158  TYR158      0.0560
     72  CG        23.3270   -9.5700   83.7410 C.ar  158  TYR158     -0.0198
     73  CD1       23.7140  -10.4310   84.7620 C.ar  158  TYR158     -0.0009
     74  CD2       22.8880  -10.1220   82.5420 C.ar  158  TYR158     -0.0009
     75  CE1       23.6620  -11.8130   84.5970 C.ar  158  TYR158      0.0417
     76  CE2       22.8320  -11.4980   82.3630 C.ar  158  TYR158      0.0417
     77  CZ        23.2200  -12.3390   83.3920 C.ar  158  TYR158      0.1957
     78  OH        23.1730  -13.6990   83.2040 O.3   158  TYR158     -0.2866
     79  N         35.3800   -5.6720   85.1740 N.3   168  LEU168     -0.1245
     80  CA        35.5410   -7.0260   85.7050 C.3   168  LEU168      0.1561
     81  C         36.9730   -7.5530   85.5990 C.2   168  LEU168      0.2260
     82  O         37.4890   -8.1330   86.5520 O.2   168  LEU168     -0.2867
     83  CB        34.5640   -7.9910   85.0130 C.3   168  LEU168      0.0270
     84  CG        33.0890   -7.6880   85.3100 C.3   168  LEU168      0.0019
     85  CD1       32.1800   -8.7280   84.6660 C.3   168  LEU168      0.0001
     86  CD2       32.8820   -7.6590   86.8140 C.3   168  LEU168      0.0001
     87  N         31.2780  -12.3230   91.0420 N.3   179  VAL179     -0.1231
     88  CA        30.5030  -11.1540   90.6570 C.3   179  VAL179      0.1692
     89  C         29.0080  -11.4160   90.6310 C.2   179  VAL179      0.2592
     90  O         28.5440  -12.3640   90.0020 O.2   179  VAL179     -0.2718
     91  CB        30.9060  -10.6170   89.2620 C.3   179  VAL179      0.0266
     92  CG1       30.7330  -11.6990   88.2060 C.3   179  VAL179      0.0020
     93  CG2       30.0450   -9.3970   88.9090 C.3   179  VAL179      0.0020
     94  N         28.2680  -10.5670   91.3350 N.am  180  GLU180     -0.1966
     95  CA        26.8150  -10.6370   91.3660 C.3   180  GLU180      0.1733
     96  C         26.2790   -9.2010   91.3310 C.2   180  GLU180      0.2616
     97  O         26.9940   -8.2930   90.8930 O.2   180  GLU180     -0.2715
     98  CB        26.3100  -11.4320   92.5850 C.3   180  GLU180      0.0429
     99  CG        27.0580  -11.2270   93.8760 C.3   180  GLU180      0.1163
    100  CD        26.6960   -9.9350   94.5580 C.2   180  GLU180      0.3649
    101  OE1       27.5840   -9.0650   94.6680 O.co2 180  GLU180     -0.2457
    102  OE2       25.5260   -9.7890   94.9830 O.co2 180  GLU180     -0.2457
    103  N         25.0550   -8.9690   91.7960 N.am  181  MET181     -0.1963
    104  CA        24.4970   -7.6230   91.6940 C.3   181  MET181      0.1736
    105  C         23.8840   -6.9500   92.9170 C.2   181  MET181      0.2616
    106  O         23.3440   -5.8540   92.7930 O.2   181  MET181     -0.2715
    107  CB        23.4520   -7.6200   90.5760 C.3   181  MET181      0.0427
    108  CG        23.9510   -8.1710   89.2550 C.3   181  MET181      0.0599
    109  SD        22.6520   -8.3330   88.0090 S.3   181  MET181     -0.1393
    110  CE        22.4410   -6.6400   87.4750 C.3   181  MET181      0.0692
    111  N         23.9640   -7.5560   94.0940 N.am  182  GLU182     -0.1977
    112  CA        23.3260   -6.9370   95.2520 C.3   182  GLU182      0.1602
    113  C         24.0990   -6.8980   96.5680 C.2   182  GLU182      0.2287
    114  O         23.7490   -6.1310   97.4650 O.2   182  GLU182     -0.2864
    115  CB        21.9840   -7.6320   95.5380 C.3   182  GLU182      0.0415
    116  CG        20.9740   -7.6710   94.3950 C.3   182  GLU182      0.1163
    117  CD        21.1340   -8.8770   93.4890 C.2   182  GLU182      0.3649
    118  OE1       21.8020   -9.8540   93.8950 O.co2 182  GLU182     -0.2457
    119  OE2       20.5740   -8.8570   92.3740 O.co2 182  GLU182     -0.2457
    120  N         27.3020  -19.8400   88.8620 N.3   204  ASP204     -0.1225
    121  CA        26.4810  -20.3630   87.7770 C.3   204  ASP204      0.1805
    122  C         27.1290  -20.1130   86.4160 C.2   204  ASP204      0.2598
    123  O         26.4890  -20.2680   85.3760 O.2   204  ASP204     -0.2718
    124  CB        25.0930  -19.7190   87.8130 C.3   204  ASP204      0.1424
    125  CG        25.1050  -18.2810   87.3340 C.2   204  ASP204      0.3668
    126  OD1       26.1450  -17.6110   87.4990 O.co2 204  ASP204     -0.2456
    127  OD2       24.0730  -17.8190   86.8020 O.co2 204  ASP204     -0.2456
    128  N         28.4020  -19.7300   86.4270 N.am  205  GLY205     -0.1957
    129  CA        29.1060  -19.4730   85.1840 C.3   205  GLY205      0.1869
    130  C         30.2200  -18.4510   85.3230 C.2   205  GLY205      0.2309
    131  O         30.6050  -18.0800   86.4300 O.2   205  GLY205     -0.2863
    132  N         31.3450  -14.7280   83.3830 N.3   207  PRO207     -0.2116
    133  CA        31.0360  -13.6860   82.3980 C.3   207  PRO207      0.1372
    134  C         32.1300  -13.5080   81.3530 C.2   207  PRO207      0.2244
    135  O         31.8910  -12.9480   80.2840 O.2   207  PRO207     -0.2868
    136  CB        30.8450  -12.4450   83.2630 C.3   207  PRO207      0.0268
    137  CG        31.8320  -12.6740   84.3670 C.3   207  PRO207      0.0207
    138  CD        31.5860  -14.1330   84.7100 C.3   207  PRO207      0.0892
    139  N         30.9400  -16.1820   78.5880 N.3   210  TRP210     -0.1241
    140  CA        29.5350  -16.3300   78.2150 C.3   210  TRP210      0.1605
    141  C         29.4090  -16.6480   76.7290 C.2   210  TRP210      0.2264
    142  O         28.4750  -17.3340   76.3090 O.2   210  TRP210     -0.2867
    143  CB        28.7400  -15.0580   78.5270 C.3   210  TRP210      0.0550
    144  CG        28.3060  -14.9390   79.9520 C.ar  210  TRP210      0.0003
    145  CD1       28.4460  -15.8760   80.9390 C.ar  210  TRP210      0.0946
    146  CD2       27.6490  -13.8170   80.5540 C.ar  210  TRP210      0.0152
    147  NE1       27.9180  -15.4040   82.1200 N.ar  210  TRP210     -0.2442
    148  CE2       27.4220  -14.1440   81.9120 C.ar  210  TRP210      0.0810
    149  CE3       27.2270  -12.5670   80.0780 C.ar  210  TRP210      0.0012
    150  CZ2       26.7950  -13.2630   82.8010 C.ar  210  TRP210      0.0191
    151  CZ3       26.6030  -11.6920   80.9600 C.ar  210  TRP210      0.0001
    152  CH2       26.3930  -12.0460   82.3090 C.ar  210  TRP210      0.0015
    153  N         27.4800  -20.8190   81.0430 N.3   215  PHE215     -0.1241
    154  CA        26.3880  -20.2940   81.8540 C.3   215  PHE215      0.1605
    155  C         25.3320  -21.3750   82.0690 C.2   215  PHE215      0.2264
    156  O         24.8480  -21.9800   81.1100 O.2   215  PHE215     -0.2867
    157  CB        25.7400  -19.0900   81.1650 C.3   215  PHE215      0.0534
    158  CG        24.5290  -18.5660   81.8830 C.ar  215  PHE215     -0.0203
    159  CD1       24.6580  -17.8850   83.0910 C.ar  215  PHE215     -0.0042
    160  CD2       23.2530  -18.7820   81.3690 C.ar  215  PHE215     -0.0042
    161  CE1       23.5330  -17.4270   83.7780 C.ar  215  PHE215     -0.0003
    162  CE2       22.1230  -18.3290   82.0490 C.ar  215  PHE215     -0.0003
    163  CZ        22.2650  -17.6510   83.2550 C.ar  215  PHE215     -0.0000
@<TRIPOS>BOND
     1   142   141    2
     2   141   140    1
     3   140   143    1
     4   140   139    1
     5   143   144    1
     6   144   146   ar
     7   144   145   ar
     8   149   146   ar
     9   149   151   ar
    10   135   134    2
    11   146   148   ar
    12   145   147   ar
    13   151   152   ar
    14   153   154    1
    15   156   155    2
    16   157   154    1
    17   157   158    1
    18   134   133    1
    19   160   158   ar
    20   160   162   ar
    21    65    66    1
    22    65    64    1
    23   154   155    1
    24   158   159   ar
    25   148   147   ar
    26   148   150   ar
    27    70    69    2
    28   162   163   ar
    29    69    68    1
    30   152   150   ar
    31    76    74   ar
    32    76    77   ar
    33   133   136    1
    34   133   132    1
    35    64    63    1
    36    74    72   ar
    37   159   161   ar
    38    78    77    1
    39   163   161   ar
    40   136   137    1
    41   132   138    1
    42    77    75   ar
    43    68    71    1
    44    68    67    1
    45    72    71    1
    46    72    73   ar
    47    63    60    1
    48    67    61   am
    49   137   138    1
    50    61    62    2
    51    61    60    1
    52    75    73   ar
    53    60    59    1
    54    85    84    1
    55    83    84    1
    56    83    80    1
    57    79    80    1
    58   129   130    1
    59   129   128    1
    60    84    86    1
    61   130   131    2
    62   123   122    2
    63    81    80    1
    64    81    82    2
    65   122   128   am
    66   122   121    1
    67   127   125   ar
    68    58    57    1
    69   125   126   ar
    70   125   124    1
    71   110   109    1
    72   121   124    1
    73   121   120    1
    74   109   108    1
    75    92    91    1
    76    50    51    1
    77    50    49    1
    78    57    54    1
    79    24    23    1
    80    56    55    2
    81    51    52    2
    82    93    91    1
    83    55    54    1
    84    25    23    1
    85    23    20    1
    86   108   107    1
    87    91    88    1
    88    49    45   am
    89    54    53    1
    90    46    45    2
    91    45    44    1
    92    90    89    2
    93    22    21    2
    94   107   104    1
    95    21    20    1
    96    20    19    1
    97    89    88    1
    98    89    94   am
    99    88    87    1
   100    42    41    1
   101    97    96    2
   102    44    43    1
   103    44    47    1
   104    19    17   am
   105    41    38    1
   106    96    95    1
   107    96   103   am
   108    94    95    1
   109    95    98    1
   110    43    39   am
   111   104   103    1
   112   104   105    1
   113    39    40    2
   114    39    38    1
   115    47    48    1
   116   119   117   ar
   117    38    37    1
   118    17    16    1
   119    17    18    2
   120    98    99    1
   121   106   105    2
   122   105   111   am
   123    16    15    1
   124   117   118   ar
   125   117   116    1
   126     4     3    2
   127    99   100    1
   128     3     2    1
   129   111   112    1
   130   116   115    1
   131    15     7   am
   132   100   101   ar
   133   100   102   ar
   134     2     1    1
   135    36    34    1
   136     8     7    2
   137   112   115    1
   138   112   113    1
   139     7     6    1
   140    34    35    1
   141    34    33    2
   142    12    14   ar
   143    12    10   ar
   144    14    13   ar
   145   113   114    2
   146    33    32    1
   147     6     5    1
   148     6     9    1
   149    10     9    1
   150    10    11   ar
   151    13    11   ar
   152    32    31    1
   153    31    30    1
   154    30    27    1
   155    28    29    2
   156    28    27    1
   157    27    26    1
