@<TRIPOS>MOLECULE
tmp/1q1jB00.pdb
 129 128 0 0 0
SMALL
GASTEIGER

@<TRIPOS>ATOM
      1  N         38.3840   80.4090   92.0000 N.3    33  TRP33      -0.1241
      2  CA        38.8590   79.8120   90.7690 C.3    33  TRP33       0.1605
      3  C         37.8660   78.6770   90.5350 C.2    33  TRP33       0.2264
      4  O         37.3940   78.0430   91.4900 O.2    33  TRP33      -0.2867
      5  CB        40.2610   79.2500   90.9660 C.3    33  TRP33       0.0550
      6  CG        41.3330   80.2670   90.9130 C.ar   33  TRP33       0.0003
      7  CD1       41.2050   81.6130   91.1090 C.ar   33  TRP33       0.0946
      8  CD2       42.7190   80.0250   90.6640 C.ar   33  TRP33       0.0152
      9  NE1       42.4290   82.2250   90.9940 N.ar   33  TRP33      -0.2442
     10  CE2       43.3780   81.2760   90.7240 C.ar   33  TRP33       0.0810
     11  CE3       43.4730   78.8700   90.3960 C.ar   33  TRP33       0.0012
     12  CZ2       44.7540   81.4080   90.5270 C.ar   33  TRP33       0.0191
     13  CZ3       44.8490   79.0010   90.1970 C.ar   33  TRP33       0.0001
     14  CH2       45.4730   80.2610   90.2640 C.ar   33  TRP33       0.0015
     15  N         40.3440   75.0940   83.9530 N.3    50  ARG50      -0.1245
     16  CA        39.9370   76.0380   84.9600 C.3    50  ARG50       0.1563
     17  C         39.9700   77.4530   84.4390 C.2    50  ARG50       0.2260
     18  O         40.5270   77.7420   83.3870 O.2    50  ARG50      -0.2867
     19  CB        40.8580   75.9390   86.1670 C.3    50  ARG50       0.0307
     20  CG        42.2380   76.4750   85.8770 C.3    50  ARG50       0.0489
     21  CD        43.0980   76.5530   87.1150 C.3    50  ARG50       0.2205
     22  NE        44.4570   76.2010   86.7550 N.pl3  50  ARG50      -0.0865
     23  CZ        45.0100   75.0200   86.9920 C.cat  50  ARG50       0.5346
     24  NH1       44.3310   74.0650   87.6140 N.pl3  50  ARG50       0.1354
     25  NH2       46.2350   74.7820   86.5600 N.pl3  50  ARG50       0.1354
     26  N         40.7050   81.2100   86.1660 N.3    52  LYS52      -0.1245
     27  CA        41.0910   81.9220   87.3750 C.3    52  LYS52       0.1561
     28  C         40.1490   83.0900   87.6420 C.2    52  LYS52       0.2260
     29  O         39.3200   83.4560   86.7990 O.2    52  LYS52      -0.2867
     30  CB        42.5320   82.4210   87.2400 C.3    52  LYS52       0.0271
     31  CG        43.5410   81.2990   87.0450 C.3    52  LYS52       0.0035
     32  CD        44.9520   81.8280   86.8920 C.3    52  LYS52       0.0206
     33  CE        45.9320   80.7000   86.6110 C.3    52  LYS52       0.1093
     34  NZ        47.3380   81.1630   86.5520 N.3    52  LYS52      -0.1314
     35  N         43.0530   87.4500   89.4850 N.3    56  ASP56      -0.1239
     36  CA        44.2510   86.6980   89.1230 C.3    56  ASP56       0.1674
     37  C         44.4790   86.6040   87.6240 C.2    56  ASP56       0.2266
     38  O         45.2210   85.7370   87.1630 O.2    56  ASP56      -0.2867
     39  CB        44.2040   85.2900   89.7280 C.3    56  ASP56       0.1410
     40  CG        44.5280   85.2830   91.2100 C.2    56  ASP56       0.3668
     41  OD1       45.6260   85.7550   91.5730 O.co2  56  ASP56      -0.2456
     42  OD2       43.6910   84.8050   92.0090 O.co2  56  ASP56      -0.2456
     43  N         43.1460   77.4520   81.7610 N.3    61  ASP61      -0.1239
     44  CA        44.0750   76.3570   81.5240 C.3    61  ASP61       0.1674
     45  C         43.2640   75.1650   81.0120 C.2    61  ASP61       0.2266
     46  O         42.1290   74.9600   81.4230 O.2    61  ASP61      -0.2867
     47  CB        44.7960   75.9630   82.8160 C.3    61  ASP61       0.1410
     48  CG        45.7180   77.0550   83.3380 C.2    61  ASP61       0.3668
     49  OD1       46.3960   77.7000   82.5060 O.co2  61  ASP61      -0.2456
     50  OD2       45.7810   77.2530   84.5770 O.co2  61  ASP61      -0.2456
     51  N         38.0140   75.9890   93.6470 N.3   101  ASP101     -0.1239
     52  CA        39.2560   75.7200   94.3590 C.3   101  ASP101      0.1674
     53  C         39.0600   76.4300   95.6900 C.2   101  ASP101      0.2266
     54  O         38.8920   77.6460   95.7330 O.2   101  ASP101     -0.2867
     55  CB        40.4840   76.2980   93.6300 C.3   101  ASP101      0.1410
     56  CG        41.0700   75.3320   92.6080 C.2   101  ASP101      0.3668
     57  OD1       40.5690   74.1930   92.5210 O.co2 101  ASP101     -0.2456
     58  OD2       42.0300   75.6990   91.8920 O.co2 101  ASP101     -0.2456
     59  N         56.0270   82.3880  111.1870 N.3   110  SER110     -0.1202
     60  CA        56.3400   83.6110  110.4570 C.3   110  SER110      0.2020
     61  C         55.4940   83.8220  109.1980 C.2   110  SER110      0.2619
     62  O         55.2990   84.9550  108.7550 O.2   110  SER110     -0.2717
     63  CB        57.8290   83.6050  110.0900 C.3   110  SER110      0.2103
     64  OG        58.2440   84.8540  109.5620 O.3   110  SER110     -0.2182
     65  N         54.9820   82.7380  108.6270 N.am  111  GLU111     -0.1965
     66  CA        54.1860   82.8460  107.4120 C.3   111  GLU111      0.1733
     67  C         52.7730   82.2990  107.5630 C.2   111  GLU111      0.2616
     68  O         52.4530   81.5970  108.5260 O.2   111  GLU111     -0.2715
     69  CB        54.8850   82.1100  106.2640 C.3   111  GLU111      0.0429
     70  CG        56.2470   82.6660  105.9020 C.3   111  GLU111      0.1163
     71  CD        56.1580   84.0400  105.2710 C.2   111  GLU111      0.3649
     72  OE1       55.5760   84.1590  104.1710 O.co2 111  GLU111     -0.2457
     73  OE2       56.6650   85.0060  105.8770 O.co2 111  GLU111     -0.2457
     74  N         51.9290   82.6430  106.5960 N.am  112  ASP112     -0.1957
     75  CA        50.5520   82.1750  106.5550 C.3   112  ASP112      0.1840
     76  C         50.4580   81.2310  105.3710 C.2   112  ASP112      0.2622
     77  O         50.7250   81.6320  104.2370 O.2   112  ASP112     -0.2715
     78  CB        49.6010   83.3490  106.3650 C.3   112  ASP112      0.1450
     79  CG        48.9830   83.7940  107.6600 C.2   112  ASP112      0.3671
     80  OD1       49.7080   83.7990  108.6780 O.co2 112  ASP112     -0.2456
     81  OD2       47.7830   84.1400  107.6620 O.co2 112  ASP112     -0.2456
     82  N         50.0920   79.9810  105.6320 N.am  113  TYR113     -0.1960
     83  CA        49.9980   78.9950  104.5660 C.3   113  TYR113      0.1771
     84  C         48.5850   78.7470  104.0560 C.2   113  TYR113      0.2620
     85  O         47.6430   78.5520  104.8330 O.2   113  TYR113     -0.2715
     86  CB        50.6080   77.6690  105.0180 C.3   113  TYR113      0.0574
     87  CG        52.0490   77.7740  105.4410 C.ar  113  TYR113     -0.0198
     88  CD1       52.4070   78.4870  106.5880 C.ar  113  TYR113     -0.0009
     89  CD2       53.0570   77.1590  104.7040 C.ar  113  TYR113     -0.0009
     90  CE1       53.7350   78.5840  106.9910 C.ar  113  TYR113      0.0417
     91  CE2       54.3890   77.2460  105.0940 C.ar  113  TYR113      0.0417
     92  CZ        54.7250   77.9590  106.2410 C.ar  113  TYR113      0.1957
     93  OH        56.0400   78.0290  106.6560 O.3   113  TYR113     -0.2866
     94  N         48.4490   78.7620  102.7340 N.am  114  TYR114     -0.1960
     95  CA        47.1720   78.5140  102.0860 C.3   114  TYR114      0.1771
     96  C         47.2820   77.2320  101.2710 C.2   114  TYR114      0.2620
     97  O         48.0550   77.1600  100.3150 O.2   114  TYR114     -0.2715
     98  CB        46.7950   79.6760  101.1650 C.3   114  TYR114      0.0574
     99  CG        46.4540   80.9460  101.8970 C.ar  114  TYR114     -0.0198
    100  CD1       47.4490   81.7420  102.4560 C.ar  114  TYR114     -0.0009
    101  CD2       45.1300   81.3340  102.0670 C.ar  114  TYR114     -0.0009
    102  CE1       47.1320   82.8960  103.1700 C.ar  114  TYR114      0.0417
    103  CE2       44.8000   82.4820  102.7820 C.ar  114  TYR114      0.0417
    104  CZ        45.8050   83.2570  103.3280 C.ar  114  TYR114      0.1957
    105  OH        45.4730   84.3860  104.0310 O.3   114  TYR114     -0.2866
    106  N         46.5270   76.2140  101.6680 N.am  115  TYR115     -0.1960
    107  CA        46.5350   74.9450  100.9580 C.3   115  TYR115      0.1771
    108  C         45.2280   74.8600  100.1900 C.2   115  TYR115      0.2619
    109  O         44.1680   74.7700  100.7970 O.2   115  TYR115     -0.2715
    110  CB        46.6050   73.7740  101.9420 C.3   115  TYR115      0.0574
    111  CG        47.9130   73.6390  102.6640 C.ar  115  TYR115     -0.0198
    112  CD1       48.2370   74.4770  103.7350 C.ar  115  TYR115     -0.0009
    113  CD2       48.8370   72.6760  102.2740 C.ar  115  TYR115     -0.0009
    114  CE1       49.4540   74.3480  104.3970 C.ar  115  TYR115      0.0417
    115  CE2       50.0440   72.5410  102.9220 C.ar  115  TYR115      0.0417
    116  CZ        50.3520   73.3740  103.9840 C.ar  115  TYR115      0.1957
    117  OH        51.5500   73.2090  104.6410 O.3   115  TYR115     -0.2866
    118  N         45.2830   74.8950   98.8640 N.am  116  TYR116     -0.1974
    119  CA        44.0590   74.8190   98.0730 C.3   116  TYR116      0.1639
    120  C         43.6010   73.3940   97.7260 C.2   116  TYR116      0.2290
    121  O         44.3920   72.4460   97.7340 O.2   116  TYR116     -0.2864
    122  CB        44.2160   75.6490   96.8030 C.3   116  TYR116      0.0560
    123  CG        44.4030   77.1180   97.0850 C.ar  116  TYR116     -0.0198
    124  CD1       45.6590   77.6280   97.4080 C.ar  116  TYR116     -0.0009
    125  CD2       43.3260   78.0010   97.0370 C.ar  116  TYR116     -0.0009
    126  CE1       45.8420   78.9830   97.6720 C.ar  116  TYR116      0.0417
    127  CE2       43.4980   79.3610   97.3030 C.ar  116  TYR116      0.0417
    128  CZ        44.7610   79.8420   97.6170 C.ar  116  TYR116      0.1957
    129  OH        44.9470   81.1790   97.8620 O.3   116  TYR116     -0.2866
@<TRIPOS>BOND
     1    45    46    2
     2    45    44    1
     3    44    43    1
     4    44    47    1
     5    49    48   ar
     6    47    48    1
     7    48    50   ar
     8    18    17    2
     9    15    16    1
    10    17    16    1
    11    16    19    1
    12    20    19    1
    13    20    21    1
    14    26    27    1
    15    34    33    1
    16    25    23    1
    17    33    32    1
    18    22    23    2
    19    22    21    1
    20    29    28    2
    21    32    31    1
    22    23    24    1
    23    31    30    1
    24    38    37    2
    25    30    27    1
    26    27    28    1
    27    37    36    1
    28    36    35    1
    29    36    39    1
    30    39    40    1
    31    13    14   ar
    32    13    11   ar
    33    14    12   ar
    34    11     8   ar
    35    12    10   ar
    36     3     2    1
    37     3     4    2
    38     8    10   ar
    39     8     6   ar
    40    10     9   ar
    41     2     5    1
    42     2     1    1
    43     6     5    1
    44     6     7   ar
    45     9     7   ar
    46    40    41   ar
    47    40    42   ar
    48    58    56   ar
    49    57    56   ar
    50    56    55    1
    51    55    52    1
    52    51    52    1
    53    52    53    1
    54    53    54    2
    55   122   123    1
    56   122   119    1
    57   125   123   ar
    58   125   127   ar
    59   123   124   ar
    60   127   128   ar
    61   124   126   ar
    62   128   126   ar
    63   128   129    1
    64   120   121    2
    65   120   119    1
    66   119   118    1
    67   118   108   am
    68   108   109    2
    69   108   107    1
    70    97    96    2
    71   107   106    1
    72   107   110    1
    73    98    99    1
    74    98    95    1
    75    96   106   am
    76    96    95    1
    77    99   101   ar
    78    99   100   ar
    79   110   111    1
    80   101   103   ar
    81    95    94    1
    82   113   111   ar
    83   113   115   ar
    84   100   102   ar
    85   111   112   ar
    86    94    84   am
    87   103   104   ar
    88   115   116   ar
    89   102   104   ar
    90   104   105    1
    91   112   114   ar
    92   116   114   ar
    93   116   117    1
    94    84    83    1
    95    84    85    2
    96    72    71   ar
    97    77    76    2
    98    83    86    1
    99    83    82    1
   100    89    91   ar
   101    89    87   ar
   102    86    87    1
   103    91    92   ar
   104    71    73   ar
   105    71    70    1
   106    76    82   am
   107    76    75    1
   108    87    88   ar
   109    70    69    1
   110    92    93    1
   111    92    90   ar
   112    69    66    1
   113    78    75    1
   114    78    79    1
   115    75    74    1
   116    88    90   ar
   117    74    67   am
   118    66    67    1
   119    66    65    1
   120    67    68    2
   121    79    81   ar
   122    79    80   ar
   123    65    61   am
   124    62    61    2
   125    61    60    1
   126    64    63    1
   127    63    60    1
   128    60    59    1
