@<TRIPOS>MOLECULE
tmp/1q1kA00.pdb
 181 171 0 0 0
SMALL
GASTEIGER

@<TRIPOS>ATOM
      1  N         45.0240   30.9200   48.8720 N.3     8  GLN8       -0.1245
      2  CA        45.3920   31.5520   47.6050 C.3     8  GLN8        0.1566
      3  C         46.5980   30.8770   47.0540 C.2     8  GLN8        0.2260
      4  O         47.6400   30.8190   47.6980 O.2     8  GLN8       -0.2867
      5  CB        45.6670   33.0440   47.7150 C.3     8  GLN8        0.0367
      6  CG        46.1880   33.6670   46.4050 C.3     8  GLN8        0.0905
      7  CD        46.4790   35.1620   46.5400 C.2     8  GLN8        0.2608
      8  OE1       47.2450   35.5370   47.4030 O.2     8  GLN8       -0.2717
      9  NE2       45.8620   36.0060   45.7160 N.am    8  GLN8       -0.0878
     10  N         49.2150   38.1820   46.5920 N.3    12  ARG12      -0.1227
     11  CA        49.3030   38.9500   47.8400 C.3    12  ARG12       0.1737
     12  C         49.3510   38.0930   49.1440 C.2    12  ARG12       0.2595
     13  O         50.2760   38.2640   49.9490 O.2    12  ARG12      -0.2718
     14  CB        48.1750   40.0170   47.8760 C.3    12  ARG12       0.0576
     15  CG        48.1710   40.9500   46.5930 C.2    12  ARG12       0.0160
     16  CD        48.7670   42.4210   46.7290 C.2    12  ARG12       0.1886
     17  NE        48.9180   43.2040   45.4660 N.pl3  12  ARG12      -0.0578
     18  CZ        48.1440   43.1290   44.3330 C.cat  12  ARG12       0.5393
     19  NH1       47.0900   42.2970   44.2210 N.pl3  12  ARG12       0.1358
     20  NH2       48.4170   43.9150   43.2890 N.pl3  12  ARG12       0.1358
     21  N         48.4140   37.1480   49.3040 N.am   13  LEU13      -0.1980
     22  CA        48.2650   36.3260   50.5000 C.3    13  LEU13       0.1596
     23  C         48.9320   34.9600   50.5580 C.2    13  LEU13       0.2287
     24  O         49.0050   34.3770   51.6160 O.2    13  LEU13      -0.2864
     25  CB        46.7940   36.0050   50.6990 C.3    13  LEU13       0.0297
     26  CG        45.5710   36.8450   51.0960 C.3    13  LEU13       0.0022
     27  CD1       44.6910   35.8870   51.9200 C.3    13  LEU13       0.0001
     28  CD2       45.8470   38.2010   51.8340 C.3    13  LEU13       0.0001
     29  N         41.8970   30.2680   43.6830 N.3    50  ARG50      -0.1231
     30  CA        41.8710   31.6900   43.4260 C.3    50  ARG50       0.1694
     31  C         41.2740   32.3970   44.6290 C.2    50  ARG50       0.2592
     32  O         40.3050   31.9030   45.1960 O.2    50  ARG50      -0.2718
     33  CB        41.0170   31.9360   42.2130 C.3    50  ARG50       0.0321
     34  CG        41.1340   33.3130   41.7140 C.3    50  ARG50       0.0489
     35  CD        41.8550   33.4740   40.4190 C.3    50  ARG50       0.2205
     36  NE        41.2370   34.6020   39.7110 N.pl3  50  ARG50      -0.0865
     37  CZ        41.8430   35.3310   38.7740 C.cat  50  ARG50       0.5346
     38  NH1       41.1810   36.3390   38.2010 N.pl3  50  ARG50       0.1354
     39  NH2       43.1060   35.0430   38.4170 N.pl3  50  ARG50       0.1354
     40  N         41.8430   33.5360   45.0480 N.am   51  ASP51      -0.1960
     41  CA        41.3270   34.2370   46.2270 C.3    51  ASP51       0.1840
     42  C         39.8400   34.4320   46.0330 C.2    51  ASP51       0.2622
     43  O         39.0310   34.0050   46.8760 O.2    51  ASP51      -0.2715
     44  CB        42.0740   35.5250   46.5000 C.3    51  ASP51       0.1450
     45  CG        42.0460   36.5270   45.3340 C.2    51  ASP51       0.3671
     46  OD1       41.6830   36.2650   44.1660 O.co2  51  ASP51      -0.2456
     47  OD2       42.4030   37.6940   45.5000 O.co2  51  ASP51      -0.2456
     48  N         39.4740   35.0090   44.8950 N.am   52  ASP52      -0.1971
     49  CA        38.0960   35.1000   44.4560 C.3    52  ASP52       0.1709
     50  C         37.2220   33.8940   44.7580 C.2    52  ASP52       0.2293
     51  O         36.0200   34.0410   44.9080 O.2    52  ASP52      -0.2864
     52  CB        38.0500   35.2720   42.9420 C.3    52  ASP52       0.1436
     53  CG        38.2810   36.7050   42.4990 C.2    52  ASP52       0.3671
     54  OD1       38.5580   37.6230   43.3360 O.co2  52  ASP52      -0.2456
     55  OD2       38.2460   36.9930   41.2940 O.co2  52  ASP52      -0.2456
     56  N         41.3530   34.0860   53.6430 N.3    68  ILE68      -0.1231
     57  CA        40.8740   34.9510   52.5600 C.3    68  ILE68       0.1692
     58  C         40.8700   36.3290   53.1390 C.2    68  ILE68       0.2592
     59  O         40.6700   36.4970   54.3550 O.2    68  ILE68      -0.2718
     60  CB        39.4070   34.5890   52.1430 C.3    68  ILE68       0.0266
     61  CG1       38.9760   35.3710   50.9140 C.3    68  ILE68       0.0019
     62  CG2       38.4500   34.9090   53.1990 C.3    68  ILE68       0.0020
     63  CD1       40.0000   35.4080   49.7930 C.3    68  ILE68       0.0001
     64  N         41.0740   37.3270   52.3020 N.am   69  GLY69      -0.1957
     65  CA        40.9320   38.6770   52.8160 C.3    69  GLY69       0.1869
     66  C         39.5020   39.1450   53.0310 C.2    69  GLY69       0.2309
     67  O         38.6350   38.7760   52.2830 O.2    69  GLY69      -0.2863
     68  N         37.6970   41.9990   52.5840 N.3    71  ASN71      -0.1225
     69  CA        37.0430   42.5990   51.4380 C.3    71  ASN71       0.1785
     70  C         36.5560   41.5810   50.3680 C.2    71  ASN71       0.2597
     71  O         35.3840   41.5370   50.0320 O.2    71  ASN71      -0.2718
     72  CB        37.9380   43.6910   50.8360 C.3    71  ASN71       0.1169
     73  CG        39.2100   43.1260   50.2420 C.2    71  ASN71       0.2627
     74  OD1       39.7380   42.1200   50.7390 O.2    71  ASN71      -0.2716
     75  ND2       39.6910   43.7270   49.1480 N.am   71  ASN71      -0.0877
     76  N         37.4280   40.7410   49.8590 N.am   72  VAL72      -0.1980
     77  CA        37.0030   39.7130   48.9120 C.3    72  VAL72       0.1595
     78  C         35.8750   38.8570   49.4850 C.2    72  VAL72       0.2287
     79  O         34.9080   38.4950   48.7520 O.2    72  VAL72      -0.2864
     80  CB        38.1550   38.7930   48.5470 C.3    72  VAL72       0.0276
     81  CG1       37.6700   37.6780   47.6680 C.3    72  VAL72       0.0022
     82  CG2       39.2910   39.5960   47.9180 C.3    72  VAL72       0.0022
     83  N         47.9910   40.8030   55.1180 N.3    98  GLY98      -0.1210
     84  CA        47.1030   41.0820   54.0280 C.3    98  GLY98       0.1956
     85  C         46.4170   42.4050   54.2580 C.2    98  GLY98       0.2612
     86  O         45.3970   42.6610   53.6570 O.2    98  GLY98      -0.2717
     87  N         46.9530   43.2760   55.0890 N.am   99  GLY99      -0.1942
     88  CA        46.2820   44.5560   55.2380 C.3    99  GLY99       0.2014
     89  C         46.1110   45.3040   53.9370 C.2    99  GLY99       0.2639
     90  O         46.9740   45.2900   53.1240 O.2    99  GLY99      -0.2714
     91  N         44.9770   45.9330   53.7200 N.am  100  CYS100     -0.1967
     92  CA        44.8540   46.9580   52.6890 C.3   100  CYS100      0.1712
     93  C         43.5580   47.7300   52.8940 C.2   100  CYS100      0.2296
     94  O         42.7140   47.3090   53.6750 O.2   100  CYS100     -0.2864
     95  CB        44.8260   46.3060   51.3330 C.3   100  CYS100      0.0983
     96  SG        43.4250   45.1850   51.2130 S.3   100  CYS100     -0.0798
     97  N         34.6430   46.8740   43.5180 N.3   127  TYR127     -0.1241
     98  CA        34.0270   46.4520   44.7400 C.3   127  TYR127      0.1605
     99  C         32.6310   47.0270   44.8680 C.2   127  TYR127      0.2264
    100  O         32.2480   47.5530   45.9020 O.2   127  TYR127     -0.2867
    101  CB        34.9310   46.8040   45.9120 C.3   127  TYR127      0.0534
    102  CG        36.0750   45.8310   45.9680 C.ar  127  TYR127     -0.0201
    103  CD1       37.3500   46.1460   45.4480 C.ar  127  TYR127     -0.0009
    104  CD2       35.8780   44.5730   46.5100 C.ar  127  TYR127     -0.0009
    105  CE1       38.3560   45.2330   45.4990 C.ar  127  TYR127      0.0417
    106  CE2       36.9110   43.6270   46.5670 C.ar  127  TYR127      0.0417
    107  CZ        38.1120   43.9520   46.0560 C.ar  127  TYR127      0.1957
    108  OH        39.0530   42.9690   46.1480 O.3   127  TYR127     -0.2866
    109  N         42.6150   48.3220   36.6000 N.3   150  SER150     -0.1217
    110  CA        42.9580   49.6000   36.0330 C.3   150  SER150      0.1889
    111  C         41.8360   50.5090   36.3140 C.2   150  SER150      0.2288
    112  O         41.4640   51.3120   35.4730 O.2   150  SER150     -0.2866
    113  CB        43.1760   49.5360   34.5160 C.3   150  SER150      0.2089
    114  OG        44.1510   48.5810   34.1730 O.3   150  SER150     -0.2183
    115  N         41.7930   53.0630   37.8930 N.3   152  GLU152     -0.1245
    116  CA        42.1880   54.4460   37.9110 C.3   152  GLU152      0.1567
    117  C         42.1410   55.1540   36.5540 C.2   152  GLU152      0.2260
    118  O         42.2040   56.3900   36.5380 O.2   152  GLU152     -0.2867
    119  CB        43.5040   54.6260   38.6600 C.3   152  GLU152      0.0388
    120  CG        43.4660   53.9580   40.0240 C.3   152  GLU152      0.1160
    121  CD        44.1990   52.6110   40.0420 C.2   152  GLU152      0.3649
    122  OE1       44.2180   51.8570   39.0090 O.co2 152  GLU152     -0.2457
    123  OE2       44.7980   52.2900   41.0990 O.co2 152  GLU152     -0.2457
    124  N         39.0340   52.3910   45.1610 N.3   165  ASP165     -0.1225
    125  CA        39.9980   51.3390   44.8930 C.3   165  ASP165      0.1805
    126  C         40.8950   50.9250   46.0530 C.2   165  ASP165      0.2598
    127  O         41.0480   51.6470   47.0320 O.2   165  ASP165     -0.2718
    128  CB        40.8540   51.7660   43.7130 C.3   165  ASP165      0.1424
    129  CG        41.5280   50.5800   42.9980 C.2   165  ASP165      0.3668
    130  OD1       41.2770   49.3950   43.3900 O.co2 165  ASP165     -0.2456
    131  OD2       42.3300   50.7480   42.0310 O.co2 165  ASP165     -0.2456
    132  N         41.5100   49.7610   45.9230 N.am  166  LEU166     -0.1966
    133  CA        42.5800   49.3700   46.8100 C.3   166  LEU166      0.1728
    134  C         43.7300   50.2880   46.6500 C.2   166  LEU166      0.2616
    135  O         44.1620   50.5800   45.5430 O.2   166  LEU166     -0.2715
    136  CB        43.0110   47.9680   46.5040 C.3   166  LEU166      0.0311
    137  CG        41.9010   47.0290   46.9380 C.3   166  LEU166      0.0022
    138  CD1       42.2490   45.5850   46.8830 C.3   166  LEU166      0.0001
    139  CD2       41.4760   47.3960   48.3730 C.3   166  LEU166      0.0001
    140  N         44.1960   50.7780   47.7800 N.am  167  VAL167     -0.1963
    141  CA        45.3820   51.6290   47.8610 C.3   167  VAL167      0.1727
    142  C         46.4180   51.0790   48.8880 C.2   167  VAL167      0.2617
    143  O         46.0410   50.4350   49.9050 O.2   167  VAL167     -0.2715
    144  CB        44.9750   53.1150   48.1940 C.3   167  VAL167      0.0290
    145  CG1       46.1520   54.0490   48.0900 C.3   167  VAL167      0.0023
    146  CG2       43.8940   53.6030   47.2490 C.3   167  VAL167      0.0023
    147  N         47.7120   51.3130   48.6210 N.am  168  SER168     -0.1936
    148  CA        48.7080   51.2800   49.7200 C.3   168  SER168      0.2055
    149  C         49.7540   52.3710   49.7030 C.2   168  SER168      0.2644
    150  O         49.7420   53.2270   50.5890 O.2   168  SER168     -0.2714
    151  CB        49.3710   49.9140   49.9220 C.3   168  SER168      0.2130
    152  OG        49.8700   49.4370   48.7040 O.3   168  SER168     -0.2179
    153  N         50.6630   52.3530   48.7290 N.am  169  THR169     -0.1936
    154  CA        51.6500   53.4340   48.6120 C.3   169  THR169      0.2028
    155  C         51.0030   54.7360   48.1250 C.2   169  THR169      0.2643
    156  O         51.4590   55.8150   48.4570 O.2   169  THR169     -0.2714
    157  CB        52.8310   53.0620   47.6980 C.3   169  THR169      0.1808
    158  OG1       52.5320   53.4590   46.3530 O.3   169  THR169     -0.2208
    159  CG2       53.0220   51.5470   47.6070 C.3   169  THR169      0.0379
    160  N         49.9260   54.6330   47.3580 N.am  170  GLY170     -0.1939
    161  CA        49.3100   55.8110   46.7770 C.3   170  GLY170      0.2014
    162  C         49.9010   56.1430   45.4070 C.2   170  GLY170      0.2639
    163  O         49.3670   57.0430   44.7430 O.2   170  GLY170     -0.2714
    164  N         50.9650   55.4270   44.9890 N.am  171  ALA171     -0.1963
    165  CA        51.6400   55.6020   43.6900 C.3   171  ALA171      0.1728
    166  C         50.7580   55.7800   42.4330 C.2   171  ALA171      0.2616
    167  O         50.8890   56.7900   41.7420 O.2   171  ALA171     -0.2715
    168  CB        52.6250   54.4630   43.4620 C.3   171  ALA171      0.0334
    169  N         49.8930   54.7900   42.1430 N.am  172  THR172     -0.1951
    170  CA        49.0410   54.7450   40.9410 C.3   172  THR172      0.1897
    171  C         48.1090   55.9280   40.8280 C.2   172  THR172      0.2313
    172  O         47.9190   56.5010   39.7520 O.2   172  THR172     -0.2863
    173  CB        48.1500   53.4640   40.9450 C.3   172  THR172      0.1794
    174  OG1       48.9620   52.3010   41.0950 O.3   172  THR172     -0.2208
    175  CG2       47.5280   53.2510   39.6020 C.3   172  THR172      0.0378
    176  N         40.9190   46.1260   55.3130 N.3   187  SER187     -0.1217
    177  CA        40.7510   44.7000   55.4430 C.3   187  SER187      0.1889
    178  C         42.0530   44.0320   55.8940 C.2   187  SER187      0.2288
    179  O         43.1120   44.6480   55.8290 O.2   187  SER187     -0.2866
    180  CB        40.2150   44.1710   54.1250 C.3   187  SER187      0.2089
    181  OG        40.5620   42.8230   53.9130 O.3   187  SER187     -0.2183
@<TRIPOS>BOND
     1   114   113    1
     2   113   110    1
     3   112   111    2
     4   110   111    1
     5   110   109    1
     6   118   117    2
     7   117   116    1
     8   115   116    1
     9   116   119    1
    10    38    37    1
    11    39    37    1
    12   119   120    1
    13    37    36    2
    14   122   121   ar
    15   175   173    1
    16    36    35    1
    17   172   171    2
    18   120   121    1
    19   121   123   ar
    20    35    34    1
    21   171   170    1
    22   170   173    1
    23   170   169    1
    24   173   174    1
    25    55    53   ar
    26    34    33    1
    27   167   166    2
    28   131   129   ar
    29   169   166   am
    30    33    30    1
    31   166   165    1
    32    53    52    1
    33    53    54   ar
    34    52    49    1
    35   129   130   ar
    36   129   128    1
    37    20    18    1
    38    30    29    1
    39    30    31    1
    40   168   165    1
    41    97    98    1
    42   165   164    1
    43   128   125    1
    44    46    45   ar
    45    19    18    1
    46    18    17    2
    47    49    50    1
    48    49    48    1
    49    31    40   am
    50    31    32    2
    51    98    99    1
    52    98   101    1
    53   163   162    2
    54    50    51    2
    55    99   100    2
    56   125   124    1
    57   125   126    1
    58    48    42   am
    59   164   162   am
    60    40    41    1
    61    45    47   ar
    62    45    44    1
    63   162   161    1
    64   103   105   ar
    65   103   102   ar
    66    17    16    1
    67   105   107   ar
    68   135   134    2
    69     9     7   am
    70   101   102    1
    71   132   126   am
    72   132   133    1
    73   102   104   ar
    74    42    41    1
    75    42    43    2
    76   126   127    2
    77   107   108    1
    78   107   106   ar
    79    41    44    1
    80   158   157    1
    81     6     7    1
    82     6     5    1
    83   136   133    1
    84   136   137    1
    85   104   106   ar
    86     7     8    2
    87    10    11    1
    88    15    16    2
    89    15    14    1
    90   134   133    1
    91   134   140   am
    92   161   160    1
    93   138   137    1
    94   137   139    1
    95     3     2    1
    96     3     4    2
    97   146   144    1
    98   160   155   am
    99     2     5    1
   100     2     1    1
   101   159   157    1
   102    81    80    1
   103   157   154    1
   104   140   141    1
   105    11    14    1
   106    11    12    1
   107   141   144    1
   108   141   142    1
   109    82    80    1
   110   145   144    1
   111   155   156    2
   112   155   154    1
   113    80    77    1
   114   154   153    1
   115   147   142   am
   116   147   148    1
   117   152   151    1
   118   153   149   am
   119    79    78    2
   120   142   143    2
   121    77    78    1
   122    77    76    1
   123    12    21   am
   124    12    13    2
   125    75    73   am
   126    21    22    1
   127   149   148    1
   128   149   150    2
   129   148   151    1
   130    63    61    1
   131    76    70   am
   132    71    70    2
   133    73    74    2
   134    73    72    1
   135    70    69    1
   136    22    23    1
   137    22    25    1
   138    23    24    2
   139    25    26    1
   140    72    69    1
   141    61    60    1
   142    26    28    1
   143    26    27    1
   144    96    95    1
   145    95    92    1
   146    69    68    1
   147    60    57    1
   148    60    62    1
   149    67    66    2
   150    64    65    1
   151    64    58   am
   152    57    58    1
   153    57    56    1
   154    92    93    1
   155    92    91    1
   156    65    66    1
   157    93    94    2
   158    90    89    2
   159    58    59    2
   160    86    85    2
   161    91    89   am
   162   181   180    1
   163    89    88    1
   164    84    85    1
   165    84    83    1
   166   180   177    1
   167    85    87   am
   168    87    88    1
   169   176   177    1
   170   177   178    1
   171   179   178    2
