@<TRIPOS>MOLECULE
tmp/1q1mA00.pdb
 170 160 0 0 0
SMALL
GASTEIGER

@<TRIPOS>ATOM
      1  N         22.4230   16.9620   23.6450 N.3    19  TYR19      -0.1241
      2  CA        23.0050   18.2920   23.5540 C.3    19  TYR19       0.1605
      3  C         22.0490   19.3060   22.9430 C.2    19  TYR19       0.2264
      4  O         21.9100   20.4190   23.4570 O.2    19  TYR19      -0.2867
      5  CB        24.3050   18.2570   22.7470 C.3    19  TYR19       0.0534
      6  CG        24.9630   19.6070   22.6570 C.ar   19  TYR19      -0.0201
      7  CD1       25.4320   20.2500   23.7990 C.ar   19  TYR19      -0.0009
      8  CD2       25.0630   20.2680   21.4440 C.ar   19  TYR19      -0.0009
      9  CE1       25.9820   21.5220   23.7310 C.ar   19  TYR19       0.0417
     10  CE2       25.6060   21.5370   21.3620 C.ar   19  TYR19       0.0417
     11  CZ        26.0650   22.1590   22.5040 C.ar   19  TYR19       0.1957
     12  OH        26.6090   23.4180   22.4090 O.3    19  TYR19      -0.2866
     13  N         20.1230   22.8270   24.4960 N.3    23  ARG23      -0.1245
     14  CA        20.0670   24.0830   23.7680 C.3    23  ARG23       0.1563
     15  C         18.6350   24.5660   23.6680 C.2    23  ARG23       0.2260
     16  O         18.3690   25.7660   23.7590 O.2    23  ARG23      -0.2867
     17  CB        20.6550   23.9350   22.3660 C.3    23  ARG23       0.0307
     18  CG        22.1540   23.7450   22.3480 C.3    23  ARG23       0.0489
     19  CD        22.6910   23.8500   20.9450 C.3    23  ARG23       0.2205
     20  NE        22.3560   25.1410   20.3530 N.pl3  23  ARG23      -0.0865
     21  CZ        22.5340   25.4440   19.0690 C.cat  23  ARG23       0.5346
     22  NH1       23.0490   24.5410   18.2400 N.pl3  23  ARG23       0.1354
     23  NH2       22.1940   26.6460   18.6120 N.pl3  23  ARG23       0.1354
     24  N         17.7420   26.0450   27.0850 N.3    26  ALA26      -0.1231
     25  CA        18.6230   27.0640   27.6420 C.3    26  ALA26       0.1694
     26  C         17.8770   28.3810   27.7890 C.2    26  ALA26       0.2592
     27  O         17.0670   28.7340   26.9450 O.2    26  ALA26      -0.2718
     28  CB        19.8440   27.2520   26.7510 C.3    26  ALA26       0.0304
     29  N         18.1460   29.1070   28.8660 N.am   27  SER27      -0.1952
     30  CA        17.4950   30.3880   29.0900 C.3    27  SER27       0.1924
     31  C         17.8640   31.3570   27.9730 C.2    27  SER27       0.2314
     32  O         18.8440   31.1590   27.2520 O.2    27  SER27      -0.2863
     33  CB        17.9520   30.9850   30.4160 C.3    27  SER27       0.2116
     34  OG        17.9870   29.9970   31.4210 O.3    27  SER27      -0.2180
     35  N         32.8450   38.5050   19.2230 N.3    45  TYR45      -0.1241
     36  CA        31.9030   37.7710   18.3800 C.3    45  TYR45       0.1605
     37  C         30.4970   38.3520   18.4320 C.2    45  TYR45       0.2264
     38  O         29.9480   38.6160   19.5070 O.2    45  TYR45      -0.2867
     39  CB        31.8490   36.3040   18.7920 C.3    45  TYR45       0.0534
     40  CG        33.1590   35.6050   18.6330 C.ar   45  TYR45      -0.0201
     41  CD1       33.6910   35.3650   17.3700 C.ar   45  TYR45      -0.0009
     42  CD2       33.8820   35.1860   19.7460 C.ar   45  TYR45      -0.0009
     43  CE1       34.9130   34.7190   17.2170 C.ar   45  TYR45       0.0417
     44  CE2       35.1110   34.5400   19.6040 C.ar   45  TYR45       0.0417
     45  CZ        35.6180   34.3080   18.3380 C.ar   45  TYR45       0.1957
     46  OH        36.8190   33.6560   18.2010 O.3    45  TYR45      -0.2866
     47  N         27.8010   36.8880   17.8420 N.3    47  ASP47      -0.1225
     48  CA        26.8960   35.9380   18.4820 C.3    47  ASP47       0.1805
     49  C         27.2560   35.5420   19.9020 C.2    47  ASP47       0.2597
     50  O         26.7760   34.5180   20.4060 O.2    47  ASP47      -0.2718
     51  CB        26.7800   34.6660   17.6290 C.3    47  ASP47       0.1424
     52  CG        26.2860   34.9500   16.2020 C.2    47  ASP47       0.3668
     53  OD1       25.4380   35.8610   16.0150 O.co2  47  ASP47      -0.2456
     54  OD2       26.7460   34.2500   15.2670 O.co2  47  ASP47      -0.2456
     55  N         28.1040   36.3280   20.5570 N.am   48  VAL48      -0.1980
     56  CA        28.4770   36.0020   21.9250 C.3    48  VAL48       0.1595
     57  C         28.4580   37.2530   22.7670 C.2    48  VAL48       0.2287
     58  O         29.3740   38.0840   22.7010 O.2    48  VAL48      -0.2864
     59  CB        29.8660   35.3480   21.9940 C.3    48  VAL48       0.0276
     60  CG1       30.2360   35.0680   23.4480 C.3    48  VAL48       0.0022
     61  CG2       29.8580   34.0480   21.2020 C.3    48  VAL48       0.0022
     62  N         43.1060   34.3600   18.0360 N.3   119  LYS119     -0.1245
     63  CA        41.9810   34.1400   18.9370 C.3   119  LYS119      0.1561
     64  C         41.9270   34.9960   20.1950 C.2   119  LYS119      0.2260
     65  O         40.9410   34.9580   20.9120 O.2   119  LYS119     -0.2867
     66  CB        41.9440   32.6720   19.3490 C.3   119  LYS119      0.0271
     67  CG        41.6100   31.7340   18.2060 C.3   119  LYS119      0.0035
     68  CD        40.2050   31.9920   17.6970 C.3   119  LYS119      0.0206
     69  CE        39.9580   31.2530   16.4100 C.3   119  LYS119      0.1093
     70  NZ        40.4150   29.8550   16.5610 N.3   119  LYS119     -0.1314
     71  N         40.6410   24.1560   19.8420 N.3   180  ASP180     -0.1225
     72  CA        39.5050   25.0750   19.6930 C.3   180  ASP180      0.1805
     73  C         38.2370   24.2730   19.3500 C.2   180  ASP180      0.2597
     74  O         38.2380   23.4630   18.4160 O.2   180  ASP180     -0.2718
     75  CB        39.7790   26.0960   18.5780 C.3   180  ASP180      0.1424
     76  CG        38.8550   27.3050   18.6620 C.2   180  ASP180      0.3668
     77  OD1       37.6520   27.1150   18.9630 O.co2 180  ASP180     -0.2456
     78  OD2       39.3200   28.4490   18.4340 O.co2 180  ASP180     -0.2456
     79  N         37.1600   24.5050   20.0970 N.am  181  PHE181     -0.1976
     80  CA        35.9210   23.7660   19.8750 C.3   181  PHE181      0.1639
     81  C         36.1620   22.2870   20.1670 C.2   181  PHE181      0.2290
     82  O         35.2630   21.4580   19.9860 O.2   181  PHE181     -0.2864
     83  CB        35.4310   23.9110   18.4300 C.3   181  PHE181      0.0560
     84  CG        34.6960   25.1990   18.1530 C.ar  181  PHE181     -0.0200
     85  CD1       33.5110   25.5020   18.8210 C.ar  181  PHE181     -0.0042
     86  CD2       35.1670   26.0920   17.1870 C.ar  181  PHE181     -0.0042
     87  CE1       32.8060   26.6690   18.5290 C.ar  181  PHE181     -0.0003
     88  CE2       34.4680   27.2580   16.8900 C.ar  181  PHE181     -0.0003
     89  CZ        33.2880   27.5500   17.5570 C.ar  181  PHE181     -0.0000
     90  N         38.2050   31.7790   27.1750 N.3   214  CYS214     -0.1221
     91  CA        38.7780   31.1000   26.0270 C.3   214  CYS214      0.1808
     92  C         38.6190   32.1620   24.9510 C.2   214  CYS214      0.2602
     93  O         38.7600   33.3420   25.2520 O.2   214  CYS214     -0.2717
     94  CB        38.0620   29.7760   25.6870 C.3   214  CYS214      0.0970
     95  SG        36.3000   29.7740   25.3420 S.3   214  CYS214     -0.0800
     96  N         38.3280   31.8030   23.7150 N.am  215  SER215     -0.1938
     97  CA        38.2110   32.8520   22.7180 C.3   215  SER215      0.2055
     98  C         36.9230   33.6380   22.9160 C.2   215  SER215      0.2642
     99  O         36.9340   34.8680   22.8990 O.2   215  SER215     -0.2714
    100  CB        38.2520   32.2580   21.3180 C.3   215  SER215      0.2130
    101  OG        38.4530   33.2810   20.3630 O.3   215  SER215     -0.2179
    102  N         35.8140   32.9270   23.1120 N.am  216  ALA216     -0.1977
    103  CA        34.5300   33.5910   23.3190 C.3   216  ALA216      0.1597
    104  C         34.1150   33.5630   24.7950 C.2   216  ALA216      0.2287
    105  O         33.3040   34.3840   25.2480 O.2   216  ALA216     -0.2864
    106  CB        33.4710   32.9390   22.4710 C.3   216  ALA216      0.0319
    107  N         32.8210   30.7050   26.4390 N.3   218  ILE218     -0.1231
    108  CA        31.5990   29.9470   26.6490 C.3   218  ILE218      0.1692
    109  C         31.7760   28.4470   26.4580 C.2   218  ILE218      0.2593
    110  O         31.1830   27.6590   27.1950 O.2   218  ILE218     -0.2718
    111  CB        30.4500   30.4550   25.7140 C.3   218  ILE218      0.0266
    112  CG1       30.7470   30.0920   24.2670 C.3   218  ILE218      0.0019
    113  CG2       30.3170   31.9710   25.8110 C.3   218  ILE218      0.0020
    114  CD1       29.7380   30.6350   23.3040 C.3   218  ILE218      0.0001
    115  N         32.5960   28.0550   25.4850 N.am  219  GLY219     -0.1942
    116  CA        32.8010   26.6390   25.2240 C.3   219  GLY219      0.2014
    117  C         33.7190   25.9240   26.2020 C.2   219  GLY219      0.2638
    118  O         33.2710   25.2090   27.1050 O.2   219  GLY219     -0.2714
    119  N         35.0200   26.1030   26.0140 N.am  220  ARG220     -0.1977
    120  CA        35.9950   25.4750   26.8840 C.3   220  ARG220      0.1597
    121  C         35.8480   25.9810   28.3150 C.2   220  ARG220      0.2287
    122  O         35.9580   25.2000   29.2560 O.2   220  ARG220     -0.2864
    123  CB        37.4070   25.7290   26.3380 C.3   220  ARG220      0.0334
    124  CG        37.6960   24.8990   25.0980 C.3   220  ARG220      0.0492
    125  CD        39.0260   25.2110   24.4570 C.3   220  ARG220      0.2205
    126  NE        38.9800   26.4750   23.7230 N.pl3 220  ARG220     -0.0865
    127  CZ        39.9300   26.8930   22.8910 C.cat 220  ARG220      0.5346
    128  NH1       39.8000   28.0660   22.2640 N.pl3 220  ARG220      0.1354
    129  NH2       41.0060   26.1350   22.6870 N.pl3 220  ARG220      0.1354
    130  N         23.6150   28.2490   32.3370 N.3   253  ARG253     -0.1245
    131  CA        23.1830   28.9390   31.1250 C.3   253  ARG253      0.1563
    132  C         22.2230   30.0880   31.3580 C.2   253  ARG253      0.2260
    133  O         21.8850   30.8230   30.4310 O.2   253  ARG253     -0.2867
    134  CB        22.6000   27.9630   30.1220 C.3   253  ARG253      0.0307
    135  CG        23.6750   27.1540   29.4130 C.3   253  ARG253      0.0489
    136  CD        23.1790   26.6750   28.0670 C.3   253  ARG253      0.2205
    137  NE        24.2100   25.9910   27.3020 N.pl3 253  ARG253     -0.0865
    138  CZ        24.2250   25.9200   25.9750 C.cat 253  ARG253      0.5346
    139  NH1       23.2600   26.4980   25.2700 N.pl3 253  ARG253      0.1354
    140  NH2       25.2020   25.2720   25.3530 N.pl3 253  ARG253      0.1354
    141  N         25.0820   32.7870   27.9090 N.3   257  MET257     -0.1230
    142  CA        24.6220   31.9760   26.7880 C.3   257  MET257      0.1702
    143  C         25.6050   30.9480   26.2400 C.2   257  MET257      0.2592
    144  O         26.8220   31.1250   26.2830 O.2   257  MET257     -0.2718
    145  CB        24.2010   32.8800   25.6330 C.3   257  MET257      0.0401
    146  CG        25.3260   33.7560   25.1130 C.3   257  MET257      0.0596
    147  SD        24.9390   34.5690   23.5450 S.3   257  MET257     -0.1393
    148  CE        23.9220   35.8980   24.1050 C.3   257  MET257      0.0692
    149  N         25.0420   29.8690   25.7140 N.am  258  GLY258     -0.1957
    150  CA        25.8190   28.8210   25.0790 C.3   258  GLY258      0.1869
    151  C         27.0040   28.1700   25.7560 C.2   258  GLY258      0.2309
    152  O         27.9390   27.7680   25.0640 O.2   258  GLY258     -0.2863
    153  N         29.8690   24.3900   23.8530 N.3   261  GLN261     -0.1245
    154  CA        29.5370   24.5410   22.4390 C.3   261  GLN261      0.1566
    155  C         29.3220   23.2990   21.5870 C.2   261  GLN261      0.2260
    156  O         28.7500   23.4030   20.5120 O.2   261  GLN261     -0.2867
    157  CB        30.5990   25.4150   21.7710 C.3   261  GLN261      0.0367
    158  CG        30.5000   26.8780   22.1420 C.3   261  GLN261      0.0905
    159  CD        29.2930   27.5410   21.4990 C.2   261  GLN261      0.2608
    160  OE1       29.3170   27.8820   20.3150 O.2   261  GLN261     -0.2717
    161  NE2       28.2190   27.7080   22.2710 N.am  261  GLN261     -0.0878
    162  N         32.0080   18.1910   23.9730 N.3   265  GLN265     -0.1245
    163  CA        32.4700   18.8580   25.1830 C.3   265  GLN265      0.1566
    164  C         31.5720   18.3760   26.3270 C.2   265  GLN265      0.2260
    165  O         32.0500   18.0830   27.4280 O.2   265  GLN265     -0.2867
    166  CB        32.3770   20.3840   25.0470 C.3   265  GLN265      0.0367
    167  CG        33.1710   20.9350   23.8770 C.3   265  GLN265      0.0905
    168  CD        33.3380   22.4340   23.9350 C.2   265  GLN265      0.2608
    169  OE1       32.3800   23.1630   24.1830 O.2   265  GLN265     -0.2717
    170  NE2       34.5570   22.9060   23.6930 N.am  265  GLN265     -0.0878
@<TRIPOS>BOND
     1    54    52   ar
     2    53    52   ar
     3    52    51    1
     4    69    70    1
     5    69    68    1
     6    88    86   ar
     7    88    89   ar
     8    86    84   ar
     9    43    41   ar
    10    43    45   ar
    11    41    40   ar
    12    89    87   ar
    13    51    48    1
    14    68    67    1
    15    47    48    1
    16    62    63    1
    17    84    83    1
    18    84    85   ar
    19    46    45    1
    20    67    66    1
    21    22    21    1
    22    45    44   ar
    23    36    37    1
    24    36    39    1
    25    36    35    1
    26    74    73    2
    27    83    80    1
    28    37    38    2
    29    78    76   ar
    30    48    49    1
    31    87    85   ar
    32    75    76    1
    33    75    72    1
    34    23    21    1
    35    40    39    1
    36    40    42   ar
    37    76    77   ar
    38    63    66    1
    39    63    64    1
    40    21    20    2
    41    73    72    1
    42    73    79   am
    43    44    42   ar
    44    72    71    1
    45    80    79    1
    46    80    81    1
    47    49    50    2
    48    49    55   am
    49    82    81    2
    50    64    65    2
    51   160   159    2
    52    20    19    1
    53   101   100    1
    54   156   155    2
    55    55    56    1
    56    19    18    1
    57    61    59    1
    58   100    97    1
    59    10     8   ar
    60    10    11   ar
    61     8     6   ar
    62   159   158    1
    63   159   161   am
    64   155   154    1
    65   157   158    1
    66   157   154    1
    67    56    59    1
    68    56    57    1
    69    59    60    1
    70   128   127    1
    71    18    17    1
    72    17    14    1
    73    12    11    1
    74   154   153    1
    75   106   103    1
    76    11     9   ar
    77     6     5    1
    78     6     7   ar
    79   129   127    1
    80    58    57    2
    81    97    98    1
    82    97    96    1
    83     5     2    1
    84   127   126    2
    85    99    98    2
    86    98   102   am
    87     3     4    2
    88     3     2    1
    89   102   103    1
    90   114   112    1
    91   103   104    1
    92   147   148    1
    93   147   146    1
    94     2     1    1
    95    15    16    2
    96    15    14    1
    97   170   168   am
    98    96    92   am
    99   126   125    1
   100     9     7   ar
   101    14    13    1
   102   167   168    1
   103   167   166    1
   104   168   169    2
   105   162   163    1
   106   112   111    1
   107   125   124    1
   108   104   105    2
   109    92    93    2
   110    92    91    1
   111   166   163    1
   112   152   151    2
   113   150   149    1
   114   150   151    1
   115   124   123    1
   116   146   145    1
   117   163   164    1
   118   116   115    1
   119   116   117    1
   120   139   138    1
   121    95    94    1
   122   140   138    1
   123   115   109   am
   124   145   142    1
   125    94    91    1
   126   111   113    1
   127   111   108    1
   128   149   143   am
   129   138   137    2
   130   119   117   am
   131   119   120    1
   132    91    90    1
   133   117   118    2
   134   143   144    2
   135   143   142    1
   136   164   165    2
   137   123   120    1
   138   107   108    1
   139   109   108    1
   140   109   110    2
   141    28    25    1
   142   142   141    1
   143   120   121    1
   144    27    26    2
   145    24    25    1
   146    32    31    2
   147   137   136    1
   148    25    26    1
   149    26    29   am
   150    31    30    1
   151   136   135    1
   152   121   122    2
   153    29    30    1
   154    30    33    1
   155   135   134    1
   156   134   131    1
   157    33    34    1
   158   133   132    2
   159   131   132    1
   160   131   130    1
