@<TRIPOS>MOLECULE
tmp/1q1qA01.pdb
 100 100 0 0 0
SMALL
GASTEIGER

@<TRIPOS>ATOM
      1  N         20.0420   22.7690   14.3030 N.3   120  VAL120     -0.1231
      2  CA        18.7680   22.6400   13.6160 C.3   120  VAL120      0.1692
      3  C         18.6700   21.2730   12.9970 C.2   120  VAL120      0.2591
      4  O         17.6620   20.5870   13.1450 O.2   120  VAL120     -0.2718
      5  CB        18.5860   23.6840   12.5050 C.3   120  VAL120      0.0266
      6  CG1       17.1090   23.9410   12.2910 C.3   120  VAL120      0.0020
      7  CG2       19.2910   24.9560   12.8650 C.3   120  VAL120      0.0020
      8  N         19.7140   20.8810   12.2820 N.am  121  VAL121     -0.1980
      9  CA        19.7160   19.5690   11.6670 C.3   121  VAL121      0.1595
     10  C         19.4390   18.5540   12.7670 C.2   121  VAL121      0.2287
     11  O         18.5650   17.6950   12.6310 O.2   121  VAL121     -0.2864
     12  CB        21.0740   19.2600   11.0370 C.3   121  VAL121      0.0276
     13  CG1       21.1090   17.8180   10.5610 C.3   121  VAL121      0.0022
     14  CG2       21.3180   20.1970    9.8850 C.3   121  VAL121      0.0022
     15  N         15.9380   18.5930   13.9470 N.3   124  TYR124     -0.1227
     16  CA        15.0870   18.1020   12.8750 C.3   124  TYR124      0.1736
     17  C         14.8770   16.6170   13.0560 C.2   124  TYR124      0.2595
     18  O         13.7620   16.1710   13.3220 O.2   124  TYR124     -0.2718
     19  CB        15.7340   18.3770   11.5230 C.3   124  TYR124      0.0548
     20  CG        14.9430   17.8660   10.3440 C.ar  124  TYR124     -0.0200
     21  CD1       15.3300   16.7090    9.6740 C.ar  124  TYR124     -0.0009
     22  CD2       13.7980   18.5300    9.9060 C.ar  124  TYR124     -0.0009
     23  CE1       14.6010   16.2240    8.5990 C.ar  124  TYR124      0.0417
     24  CE2       13.0590   18.0540    8.8330 C.ar  124  TYR124      0.0417
     25  CZ        13.4680   16.8990    8.1830 C.ar  124  TYR124      0.1957
     26  OH        12.7520   16.4190    7.1080 O.3   124  TYR124     -0.2866
     27  N         15.9530   15.8500   12.9290 N.am  125  HIS125     -0.1975
     28  CA        15.8690   14.4120   13.0940 C.3   125  HIS125      0.1656
     29  C         15.2250   14.0310   14.4310 C.2   125  HIS125      0.2291
     30  O         14.2250   13.3170   14.4550 O.2   125  HIS125     -0.2864
     31  CB        17.2620   13.7980   12.9750 C.3   125  HIS125      0.0771
     32  CG        17.8600   13.9370   11.6110 C.ar  125  HIS125      0.0820
     33  ND1       17.1780   13.5940   10.4620 N.ar  125  HIS125     -0.2267
     34  CD2       19.0810   14.3680   11.2090 C.ar  125  HIS125      0.1154
     35  CE1       17.9520   13.8080    9.4110 C.ar  125  HIS125      0.1986
     36  NE2       19.1130   14.2770    9.8380 N.ar  125  HIS125     -0.2212
     37  N         11.0970   20.8310    5.2720 N.3   139  PRO139     -0.2116
     38  CA        12.3930   21.3920    5.6700 C.3   139  PRO139      0.1372
     39  C         12.3350   22.9020    5.8260 C.2   139  PRO139      0.2244
     40  O         12.3950   23.4140    6.9510 O.2   139  PRO139     -0.2868
     41  CB        13.3190   20.9430    4.5440 C.3   139  PRO139      0.0268
     42  CG        12.8160   19.5890    4.2650 C.3   139  PRO139      0.0207
     43  CD        11.2930   19.8100    4.2270 C.3   139  PRO139      0.0892
     44  N         10.4730   24.1570    8.5950 N.3   142  PHE142     -0.1227
     45  CA        11.1330   23.8650    9.8580 C.3   142  PHE142      0.1736
     46  C         12.2310   24.8940   10.1140 C.2   142  PHE142      0.2595
     47  O         12.3520   25.4210   11.2300 O.2   142  PHE142     -0.2718
     48  CB        11.7360   22.4650    9.8330 C.3   142  PHE142      0.0547
     49  CG        12.2780   22.0220   11.1530 C.ar  142  PHE142     -0.0202
     50  CD1       13.6300   21.7310   11.2940 C.ar  142  PHE142     -0.0042
     51  CD2       11.4420   21.9100   12.2630 C.ar  142  PHE142     -0.0042
     52  CE1       14.1540   21.3320   12.5260 C.ar  142  PHE142     -0.0003
     53  CE2       11.9480   21.5140   13.5010 C.ar  142  PHE142     -0.0003
     54  CZ        13.3100   21.2230   13.6350 C.ar  142  PHE142     -0.0000
     55  N         13.0170   25.1770    9.0740 N.am  143  LEU143     -0.1980
     56  CA        14.1040   26.1490    9.1520 C.3   143  LEU143      0.1596
     57  C         13.5950   27.5750    9.3760 C.2   143  LEU143      0.2287
     58  O         14.2720   28.3810   10.0120 O.2   143  LEU143     -0.2864
     59  CB        14.9360   26.1080    7.8740 C.3   143  LEU143      0.0297
     60  CG        16.0810   27.1160    7.8180 C.3   143  LEU143      0.0022
     61  CD1       16.9900   26.9270    9.0130 C.3   143  LEU143      0.0001
     62  CD2       16.8590   26.9170    6.5340 C.3   143  LEU143      0.0001
     63  N         25.3800   18.8120    5.0210 N.3   250  ASN250     -0.1225
     64  CA        24.7770   17.6960    4.3010 C.3   250  ASN250      0.1785
     65  C         23.2620   17.7570    4.3250 C.2   250  ASN250      0.2597
     66  O         22.5760   16.8310    3.8890 O.2   250  ASN250     -0.2718
     67  CB        25.2520   16.3780    4.9000 C.3   250  ASN250      0.1169
     68  CG        26.7170   16.1360    4.6480 C.2   250  ASN250      0.2627
     69  OD1       27.1930   16.3300    3.5350 O.2   250  ASN250     -0.2716
     70  ND2       27.4420   15.7060    5.6720 N.am  250  ASN250     -0.0877
     71  N         22.7410   18.8660    4.8270 N.am  251  HIS251     -0.1961
     72  CA        21.3060   19.0350    4.9200 C.3   251  HIS251      0.1787
     73  C         20.8680   20.3320    4.2430 C.2   251  HIS251      0.2620
     74  O         19.9960   20.3100    3.3660 O.2   251  HIS251     -0.2715
     75  CB        20.8770   18.9890    6.4020 C.3   251  HIS251      0.0785
     76  CG        21.0420   17.6330    7.0370 C.ar  251  HIS251      0.0821
     77  ND1       22.2620   16.9900    7.1250 N.ar  251  HIS251     -0.2267
     78  CD2       20.1370   16.7900    7.5870 C.ar  251  HIS251      0.1154
     79  CE1       22.0960   15.8120    7.6970 C.ar  251  HIS251      0.1986
     80  NE2       20.8180   15.6630    7.9880 N.ar  251  HIS251     -0.2212
     81  N         21.4820   21.4510    4.6270 N.am  252  PHE252     -0.1974
     82  CA        21.1530   22.7640    4.0460 C.3   252  PHE252      0.1639
     83  C         21.4340   22.8410    2.5360 C.2   252  PHE252      0.2290
     84  O         22.4700   22.3750    2.0520 O.2   252  PHE252     -0.2864
     85  CB        21.9710   23.8900    4.7150 C.3   252  PHE252      0.0560
     86  CG        21.4910   24.3010    6.0860 C.ar  252  PHE252     -0.0200
     87  CD1       21.4030   23.3810    7.1190 C.ar  252  PHE252     -0.0042
     88  CD2       21.1920   25.6350    6.3560 C.ar  252  PHE252     -0.0042
     89  CE1       21.0310   23.7810    8.4050 C.ar  252  PHE252     -0.0003
     90  CE2       20.8190   26.0480    7.6370 C.ar  252  PHE252     -0.0003
     91  CZ        20.7390   25.1180    8.6630 C.ar  252  PHE252     -0.0000
     92  N         19.1530   27.7900    1.4160 N.3   256  GLN256     -0.1245
     93  CA        18.8900   27.8150    2.8490 C.3   256  GLN256      0.1566
     94  C         20.1470   28.3050    3.5720 C.2   256  GLN256      0.2260
     95  O         20.0840   29.1940    4.4250 O.2   256  GLN256     -0.2867
     96  CB        18.5280   26.4080    3.3420 C.3   256  GLN256      0.0367
     97  CG        17.3920   25.7160    2.5840 C.3   256  GLN256      0.0905
     98  CD        17.1480   24.2780    3.0460 C.2   256  GLN256      0.2608
     99  OE1       18.0750   23.4620    3.1150 O.2   256  GLN256     -0.2717
    100  NE2       15.8920   23.9620    3.3520 N.am  256  GLN256     -0.0878
@<TRIPOS>BOND
     1    92    93    1
     2    84    83    2
     3    83    82    1
     4    97    98    1
     5    97    96    1
     6    93    96    1
     7    93    94    1
     8    98    99    2
     9    98   100   am
    10    74    73    2
    11    69    68    2
    12    94    95    2
    13    66    65    2
    14    82    81    1
    15    82    85    1
    16    43    42    1
    17    43    37    1
    18    73    81   am
    19    73    72    1
    20    42    41    1
    21    64    65    1
    22    64    67    1
    23    64    63    1
    24    65    71   am
    25    41    38    1
    26    68    67    1
    27    68    70   am
    28    85    86    1
    29    71    72    1
    30    72    75    1
    31    37    38    1
    32    38    39    1
    33    39    40    2
    34    86    88   ar
    35    86    87   ar
    36    88    90   ar
    37    75    76    1
    38    62    60    1
    39    76    77   ar
    40    76    78   ar
    41    26    25    1
    42    87    89   ar
    43    77    79   ar
    44    78    80   ar
    45    90    91   ar
    46    79    80   ar
    47    60    59    1
    48    60    61    1
    49    59    56    1
    50    25    23   ar
    51    25    24   ar
    52    89    91   ar
    53    44    45    1
    54    23    21   ar
    55    24    22   ar
    56    55    56    1
    57    55    46   am
    58    56    57    1
    59    57    58    2
    60    35    36   ar
    61    35    33   ar
    62    21    20   ar
    63    48    45    1
    64    48    49    1
    65    36    34   ar
    66    45    46    1
    67    14    12    1
    68    22    20   ar
    69    46    47    2
    70    20    19    1
    71    33    32   ar
    72    13    12    1
    73    12     9    1
    74    49    50   ar
    75    49    51   ar
    76    34    32   ar
    77    50    52   ar
    78    19    16    1
    79    32    31    1
    80     9     8    1
    81     9    10    1
    82    51    53   ar
    83     8     3   am
    84     6     5    1
    85     5     7    1
    86     5     2    1
    87    52    54   ar
    88    11    10    2
    89    16    17    1
    90    16    15    1
    91    27    17   am
    92    27    28    1
    93    31    28    1
    94     3     4    2
    95     3     2    1
    96    17    18    2
    97    28    29    1
    98    53    54   ar
    99     2     1    1
   100    29    30    2
