@<TRIPOS>MOLECULE
tmp/1q1qA02.pdb
 176 174 0 0 0
SMALL
GASTEIGER

@<TRIPOS>ATOM
      1  N          6.9580   22.2690   25.2690 N.3    14  PRO14      -0.2116
      2  CA         6.2640   21.0360   24.8640 C.3    14  PRO14       0.1372
      3  C          5.2700   20.5890   25.9340 C.2    14  PRO14       0.2244
      4  O          5.5870   20.6160   27.1370 O.2    14  PRO14      -0.2868
      5  CB         7.3990   20.0220   24.7060 C.3    14  PRO14       0.0268
      6  CG         8.6460   20.8790   24.5700 C.3    14  PRO14       0.0207
      7  CD         8.3810   21.9990   25.5230 C.3    14  PRO14       0.0892
      8  N          6.1570   17.0600   29.1610 N.3    17  LEU17      -0.1231
      9  CA         7.3690   17.0950   29.9800 C.3    17  LEU17       0.1693
     10  C          7.4140   18.3730   30.8020 C.2    17  LEU17       0.2592
     11  O          8.1350   18.4620   31.8100 O.2    17  LEU17      -0.2718
     12  CB         8.6080   17.0550   29.0990 C.3    17  LEU17       0.0284
     13  CG         8.4870   16.0660   27.9580 C.3    17  LEU17       0.0019
     14  CD1        9.7920   16.0500   27.1620 C.3    17  LEU17       0.0001
     15  CD2        8.1440   14.6940   28.5320 C.3    17  LEU17       0.0001
     16  N          6.6420   19.3600   30.3470 N.am   18  TYR18      -0.1976
     17  CA         6.5900   20.6700   30.9770 C.3    18  TYR18       0.1639
     18  C          5.1500   21.1290   31.2580 C.2    18  TYR18       0.2290
     19  O          4.1960   20.6590   30.6270 O.2    18  TYR18      -0.2864
     20  CB         7.3000   21.6740   30.0640 C.3    18  TYR18       0.0560
     21  CG         8.7070   21.2510   29.6640 C.ar   18  TYR18      -0.0198
     22  CD1        9.7400   21.2070   30.6080 C.ar   18  TYR18      -0.0009
     23  CD2        9.0080   20.9050   28.3450 C.ar   18  TYR18      -0.0009
     24  CE1       11.0370   20.8310   30.2470 C.ar   18  TYR18       0.0417
     25  CE2       10.3030   20.5260   27.9750 C.ar   18  TYR18       0.0417
     26  CZ        11.3120   20.4930   28.9320 C.ar   18  TYR18       0.1957
     27  OH        12.5940   20.1190   28.5830 O.3    18  TYR18      -0.2866
     28  N         18.5960   23.2390   23.4880 N.3    43  PRO43      -0.2102
     29  CA        18.4740   21.8780   22.9670 C.3    43  PRO43       0.1504
     30  C         19.3510   21.5430   21.7630 C.2    43  PRO43       0.2575
     31  O         19.6280   22.3930   20.9150 O.2    43  PRO43      -0.2718
     32  CB        16.9900   21.7820   22.6380 C.3    43  PRO43       0.0282
     33  CG        16.3780   22.5380   23.7670 C.3    43  PRO43       0.0208
     34  CD        17.2740   23.7700   23.8660 C.3    43  PRO43       0.0893
     35  N         19.7880   20.2900   21.7100 N.am   44  LYS44      -0.1980
     36  CA        20.5950   19.7740   20.6140 C.3    44  LYS44       0.1596
     37  C         21.9830   20.3920   20.4910 C.2    44  LYS44       0.2287
     38  O         22.6630   20.2350   19.4720 O.2    44  LYS44      -0.2864
     39  CB        19.8230   19.9270   19.3010 C.3    44  LYS44       0.0298
     40  CG        18.3070   19.8080   19.4490 C.3    44  LYS44       0.0038
     41  CD        17.8870   18.6860   20.3990 C.3    44  LYS44       0.0206
     42  CE        18.4310   17.3070   19.9900 C.3    44  LYS44       0.1093
     43  NZ        17.9660   16.2130   20.9020 N.3    44  LYS44      -0.1314
     44  N         19.2650   11.2370   32.7650 N.3    72  TRP72      -0.1241
     45  CA        18.3130   12.2660   33.1810 C.3    72  TRP72       0.1605
     46  C         18.0410   12.2080   34.6930 C.2    72  TRP72       0.2264
     47  O         17.0630   12.7750   35.2120 O.2    72  TRP72      -0.2867
     48  CB        17.0210   12.1090   32.3750 C.3    72  TRP72       0.0550
     49  CG        16.4350   10.7360   32.4420 C.ar   72  TRP72       0.0003
     50  CD1       15.5790   10.2630   33.3890 C.ar   72  TRP72       0.0946
     51  CD2       16.6690    9.6500   31.5340 C.ar   72  TRP72       0.0152
     52  NE1       15.2610    8.9510   33.1290 N.ar   72  TRP72      -0.2442
     53  CE2       15.9180    8.5490   31.9980 C.ar   72  TRP72       0.0810
     54  CE3       17.4430    9.5000   30.3800 C.ar   72  TRP72       0.0012
     55  CZ2       15.9100    7.3130   31.3470 C.ar   72  TRP72       0.0191
     56  CZ3       17.4370    8.2670   29.7290 C.ar   72  TRP72       0.0001
     57  CH2       16.6740    7.1890   30.2180 C.ar   72  TRP72       0.0015
     58  N         16.8010   17.9290   34.6740 N.3    77  TRP77      -0.1241
     59  CA        16.3820   19.2580   34.2200 C.3    77  TRP77       0.1605
     60  C         15.4310   19.9510   35.1900 C.2    77  TRP77       0.2264
     61  O         14.4310   19.3740   35.6190 O.2    77  TRP77      -0.2867
     62  CB        15.7440   19.1890   32.8340 C.3    77  TRP77       0.0550
     63  CG        16.7510   19.0360   31.7480 C.ar   77  TRP77       0.0003
     64  CD1       17.4710   20.0280   31.1420 C.ar   77  TRP77       0.0946
     65  CD2       17.1860   17.8110   31.1650 C.ar   77  TRP77       0.0152
     66  NE1       18.3300   19.4920   30.2120 N.ar   77  TRP77      -0.2442
     67  CE2       18.1720   18.1260   30.2040 C.ar   77  TRP77       0.0810
     68  CE3       16.8370   16.4670   31.3540 C.ar   77  TRP77       0.0012
     69  CZ2       18.8190   17.1530   29.4410 C.ar   77  TRP77       0.0191
     70  CZ3       17.4760   15.4960   30.5970 C.ar   77  TRP77       0.0001
     71  CH2       18.4530   15.8450   29.6490 C.ar   77  TRP77       0.0015
     72  N         11.5970   20.6870   33.8480 N.3    80  THR80      -0.1218
     73  CA        10.7840   19.4860   33.6410 C.3    80  THR80       0.1862
     74  C          9.7870   19.2260   34.7660 C.2    80  THR80       0.2287
     75  O         10.0210   19.6180   35.9150 O.2    80  THR80      -0.2866
     76  CB        11.6650   18.2650   33.5230 C.3    80  THR80       0.1770
     77  OG1       12.4370   18.1300   34.7230 O.3    80  THR80      -0.2211
     78  CG2       12.5910   18.4090   32.3410 C.3    80  THR80       0.0375
     79  N         17.5010   24.1490   29.9730 N.3    92  HIS92      -0.1241
     80  CA        17.4330   24.6960   28.6160 C.3    92  HIS92       0.1621
     81  C         16.7300   26.0420   28.6400 C.2    92  HIS92       0.2264
     82  O         16.4820   26.6330   27.5890 O.2    92  HIS92      -0.2867
     83  CB        16.6540   23.7670   27.6680 C.3    92  HIS92       0.0745
     84  CG        17.3800   22.5060   27.3210 C.ar   92  HIS92       0.0817
     85  ND1       18.7320   22.4780   27.0470 N.ar   92  HIS92      -0.2268
     86  CD2       16.9450   21.2320   27.2070 C.ar   92  HIS92       0.1154
     87  CE1       19.0990   21.2390   26.7840 C.ar   92  HIS92       0.1986
     88  NE2       18.0330   20.4620   26.8740 N.ar   92  HIS92      -0.2212
     89  N         15.7810   14.5130   15.5380 N.3   126  TYR126     -0.1241
     90  CA        15.2310   14.1860   16.8440 C.3   126  TYR126      0.1605
     91  C         13.7120   14.2930   16.8770 C.2   126  TYR126      0.2264
     92  O         13.0310   13.3330   17.2070 O.2   126  TYR126     -0.2867
     93  CB        15.8290   15.0920   17.9210 C.3   126  TYR126      0.0534
     94  CG        15.2940   14.8300   19.3180 C.ar  126  TYR126     -0.0201
     95  CD1       15.3630   13.5570   19.8870 C.ar  126  TYR126     -0.0009
     96  CD2       14.7210   15.8550   20.0720 C.ar  126  TYR126     -0.0009
     97  CE1       14.8740   13.3090   21.1680 C.ar  126  TYR126      0.0417
     98  CE2       14.2270   15.6200   21.3590 C.ar  126  TYR126      0.0417
     99  CZ        14.3060   14.3430   21.9000 C.ar  126  TYR126      0.1957
    100  OH        13.8070   14.0930   23.1640 O.3   126  TYR126     -0.2866
    101  N          7.2990   14.0290   22.6960 N.3   132  GLN132     -0.1231
    102  CA         6.8220   15.3280   23.1510 C.3   132  GLN132      0.1698
    103  C          6.7870   16.3530   22.0210 C.2   132  GLN132      0.2592
    104  O          6.0990   17.3620   22.1430 O.2   132  GLN132     -0.2718
    105  CB         7.7090   15.8740   24.2810 C.3   132  GLN132      0.0381
    106  CG         9.0650   16.4230   23.8140 C.3   132  GLN132      0.0905
    107  CD        10.1340   15.3500   23.6580 C.2   132  GLN132      0.2608
    108  OE1        9.8400   14.1870   23.3670 O.2   132  GLN132     -0.2717
    109  NE2       11.3880   15.7420   23.8370 N.am  132  GLN132     -0.0878
    110  N          7.5080   16.0820   20.9270 N.am  133  LEU133     -0.1980
    111  CA         7.6040   17.0080   19.7890 C.3   133  LEU133      0.1596
    112  C          6.8710   16.6700   18.4930 C.2   133  LEU133      0.2287
    113  O          6.9180   15.5210   17.9940 O.2   133  LEU133     -0.2864
    114  CB         9.0650   17.2210   19.4170 C.3   133  LEU133      0.0297
    115  CG         9.9990   17.8150   20.4530 C.3   133  LEU133      0.0022
    116  CD1       11.3660   18.0550   19.8130 C.3   133  LEU133      0.0001
    117  CD2        9.4020   19.1190   20.9590 C.3   133  LEU133      0.0001
    118  N         10.3860   25.0290   20.4920 N.3   152  GLN152     -0.1231
    119  CA        10.5200   24.8360   21.9190 C.3   152  GLN152      0.1698
    120  C         11.7130   25.6300   22.4930 C.2   152  GLN152      0.2592
    121  O         12.8490   25.4800   22.0350 O.2   152  GLN152     -0.2718
    122  CB        10.6670   23.3350   22.1710 C.3   152  GLN152      0.0381
    123  CG        11.5200   22.6510   21.1180 C.3   152  GLN152      0.0905
    124  CD        12.5730   21.7590   21.7440 C.2   152  GLN152      0.2608
    125  OE1       12.2490   20.8770   22.5450 O.2   152  GLN152     -0.2717
    126  NE2       13.8410   21.9800   21.3870 N.am  152  GLN152     -0.0878
    127  N         11.4370   26.4780   23.4840 N.am  153  PHE153     -0.1976
    128  CA        12.4650   27.2980   24.1380 C.3   153  PHE153      0.1639
    129  C         12.8050   28.6120   23.4150 C.2   153  PHE153      0.2290
    130  O         13.6380   29.3890   23.8830 O.2   153  PHE153     -0.2864
    131  CB        13.7490   26.4830   24.3590 C.3   153  PHE153      0.0560
    132  CG        13.6310   25.4480   25.4440 C.ar  153  PHE153     -0.0200
    133  CD1       13.5740   25.8240   26.7830 C.ar  153  PHE153     -0.0042
    134  CD2       13.5510   24.0930   25.1280 C.ar  153  PHE153     -0.0042
    135  CE1       13.4370   24.8650   27.7930 C.ar  153  PHE153     -0.0003
    136  CE2       13.4130   23.1300   26.1340 C.ar  153  PHE153     -0.0003
    137  CZ        13.3570   23.5210   27.4660 C.ar  153  PHE153     -0.0000
    138  N         19.7380    7.0240   26.1640 N.3   224  TYR224     -0.1241
    139  CA        18.2880    7.2130   26.1940 C.3   224  TYR224      0.1605
    140  C         17.4210    6.0410   25.7200 C.2   224  TYR224      0.2264
    141  O         16.1990    6.1860   25.6130 O.2   224  TYR224     -0.2867
    142  CB        17.9180    8.4620   25.3800 C.3   224  TYR224      0.0534
    143  CG        18.5640    9.7350   25.8830 C.ar  224  TYR224     -0.0201
    144  CD1       17.8270   10.6820   26.5990 C.ar  224  TYR224     -0.0009
    145  CD2       19.9240    9.9720   25.6780 C.ar  224  TYR224     -0.0009
    146  CE1       18.4330   11.8350   27.1040 C.ar  224  TYR224      0.0417
    147  CE2       20.5420   11.1160   26.1780 C.ar  224  TYR224      0.0417
    148  CZ        19.7920   12.0440   26.8860 C.ar  224  TYR224      0.1957
    149  OH        20.4110   13.1770   27.3590 O.3   224  TYR224     -0.2866
    150  N         14.2890    5.1600   27.7480 N.3   227  LEU227     -0.1245
    151  CA        13.0980    5.9970   27.8270 C.3   227  LEU227      0.1561
    152  C         11.9100    5.1870   27.2800 C.2   227  LEU227      0.2260
    153  O         12.1000    4.2260   26.5220 O.2   227  LEU227     -0.2867
    154  CB        13.2790    7.2550   26.9740 C.3   227  LEU227      0.0270
    155  CG        14.4300    8.2220   27.2650 C.3   227  LEU227      0.0019
    156  CD1       14.5530    9.1840   26.1050 C.3   227  LEU227      0.0001
    157  CD2       14.1920    8.9760   28.5700 C.3   227  LEU227      0.0001
    158  N          7.9080    8.6280   24.2560 N.3   231  LEU231     -0.1245
    159  CA         8.7630    9.7890   24.4660 C.3   231  LEU231      0.1561
    160  C          9.9520    9.7350   23.4990 C.2   231  LEU231      0.2260
    161  O         10.6290   10.7400   23.2360 O.2   231  LEU231     -0.2867
    162  CB         9.2560    9.7690   25.9110 C.3   231  LEU231      0.0270
    163  CG         9.5040   11.0860   26.6460 C.3   231  LEU231      0.0019
    164  CD1        8.2200   11.8860   26.6690 C.3   231  LEU231      0.0001
    165  CD2        9.9720   10.8070   28.0760 C.3   231  LEU231      0.0001
    166  N         18.7950    8.7830   19.7240 N.3   239  PHE239     -0.1241
    167  CA        19.0860   10.0670   20.3520 C.3   239  PHE239      0.1605
    168  C         20.5190   10.5310   20.0750 C.2   239  PHE239      0.2264
    169  O         20.7960   11.7320   20.0400 O.2   239  PHE239     -0.2867
    170  CB        18.8740    9.9770   21.8700 C.3   239  PHE239      0.0534
    171  CG        18.7240   11.3190   22.5410 C.ar  239  PHE239     -0.0203
    172  CD1       17.4580   11.8370   22.8060 C.ar  239  PHE239     -0.0042
    173  CD2       19.8440   12.1010   22.8300 C.ar  239  PHE239     -0.0042
    174  CE1       17.3100   13.1160   23.3380 C.ar  239  PHE239     -0.0003
    175  CE2       19.7070   13.3810   23.3620 C.ar  239  PHE239     -0.0003
    176  CZ        18.4400   13.8890   23.6140 C.ar  239  PHE239     -0.0000
@<TRIPOS>BOND
     1    89    90    1
     2    90    91    1
     3    90    93    1
     4    91    92    2
     5    93    94    1
     6   113   112    2
     7   112   111    1
     8    39    40    1
     9    39    36    1
    10    94    95   ar
    11    94    96   ar
    12   114   111    1
    13   114   115    1
    14    40    41    1
    15    38    37    2
    16   166   167    1
    17   111   110    1
    18   116   115    1
    19    95    97   ar
    20    42    41    1
    21    42    43    1
    22   169   168    2
    23    96    98   ar
    24   168   167    1
    25   167   170    1
    26   115   117    1
    27    37    36    1
    28   118   119    1
    29    36    35    1
    30    31    30    2
    31   110   103   am
    32   123   124    1
    33   123   122    1
    34    97    99   ar
    35    98    99   ar
    36   126   124   am
    37    35    30   am
    38   124   125    2
    39    30    29    1
    40   170   171    1
    41    99   100    1
    42   119   122    1
    43   119   120    1
    44   103   104    2
    45   103   102    1
    46   121   120    2
    47   120   127   am
    48   171   172   ar
    49   171   173   ar
    50    32    29    1
    51    32    33    1
    52   101   102    1
    53   172   174   ar
    54   173   175   ar
    55    29    28    1
    56   102   105    1
    57   161   160    2
    58   174   176   ar
    59   175   176   ar
    60   108   107    2
    61   129   130    2
    62   129   128    1
    63   127   128    1
    64    28    34    1
    65   160   159    1
    66   107   106    1
    67   107   109   am
    68    33    34    1
    69   106   105    1
    70   128   131    1
    71   158   159    1
    72   131   132    1
    73   159   162    1
    74     6     5    1
    75     6     7    1
    76     5     2    1
    77     2     1    1
    78     2     3    1
    79   134   132   ar
    80   134   136   ar
    81     1     7    1
    82   142   143    1
    83   142   139    1
    84   132   133   ar
    85   141   140    2
    86   145   143   ar
    87   145   147   ar
    88   140   139    1
    89   143   144   ar
    90   162   163    1
    91     3     4    2
    92   156   155    1
    93   136   137   ar
    94   138   139    1
    95   147   148   ar
    96   153   152    2
    97   144   146   ar
    98   163   164    1
    99   163   165    1
   100   133   135   ar
   101    87    88   ar
   102    87    85   ar
   103    88    86   ar
   104   148   146   ar
   105   148   149    1
   106   154   155    1
   107   154   151    1
   108    85    84   ar
   109    14    13    1
   110    86    84   ar
   111   155   157    1
   112   152   151    1
   113    84    83    1
   114   137   135   ar
   115    82    81    2
   116    83    80    1
   117   150   151    1
   118    13    15    1
   119    13    12    1
   120    25    23   ar
   121    25    26   ar
   122    23    21   ar
   123    27    26    1
   124    80    81    1
   125    80    79    1
   126    26    24   ar
   127    12     9    1
   128     8     9    1
   129    69    71   ar
   130    69    67   ar
   131    71    70   ar
   132    21    20    1
   133    21    22   ar
   134    56    57   ar
   135    56    54   ar
   136     9    10    1
   137    20    17    1
   138    67    66   ar
   139    67    65   ar
   140    66    64   ar
   141    57    55   ar
   142    24    22   ar
   143    16    10   am
   144    16    17    1
   145    54    51   ar
   146    70    68   ar
   147    19    18    2
   148    10    11    2
   149    17    18    1
   150    64    63   ar
   151    65    68   ar
   152    65    63   ar
   153    55    53   ar
   154    51    53   ar
   155    51    49   ar
   156    63    62    1
   157    53    52   ar
   158    78    76    1
   159    48    49    1
   160    48    45    1
   161    49    50   ar
   162    44    45    1
   163    62    59    1
   164    52    50   ar
   165    45    46    1
   166    76    73    1
   167    76    77    1
   168    73    72    1
   169    73    74    1
   170    59    58    1
   171    59    60    1
   172    46    47    2
   173    74    75    2
   174    60    61    2
