@<TRIPOS>MOLECULE
tmp/1q1sC00.pdb
 200 190 0 0 0
SMALL
GASTEIGER

@<TRIPOS>ATOM
      1  N         48.4900   70.2940   51.1070 N.3   177  LYS177     -0.1245
      2  CA        49.2580   69.0880   50.7990 C.3   177  LYS177      0.1561
      3  C         50.7120   69.0560   50.3530 C.2   177  LYS177      0.2260
      4  O         51.3330   67.9890   50.4130 O.2   177  LYS177     -0.2867
      5  CB        48.4790   68.2690   49.7790 C.3   177  LYS177      0.0271
      6  CG        47.4320   67.3680   50.3710 C.3   177  LYS177      0.0035
      7  CD        46.5850   66.7710   49.2600 C.3   177  LYS177      0.0206
      8  CE        47.4540   66.1480   48.1810 C.3   177  LYS177      0.1093
      9  NZ        46.6380   65.6920   47.0250 N.3   177  LYS177     -0.1314
     10  N         43.2210   62.8840   52.0060 N.3   217  ASP217     -0.1225
     11  CA        43.6090   63.2270   50.6470 C.3   217  ASP217      0.1805
     12  C         45.1260   63.0940   50.5110 C.2   217  ASP217      0.2598
     13  O         45.8650   64.0660   50.6820 O.2   217  ASP217     -0.2718
     14  CB        43.1730   64.6580   50.3220 C.3   217  ASP217      0.1424
     15  CG        43.4200   65.0290   48.8710 C.2   217  ASP217      0.3668
     16  OD1       43.6290   64.1180   48.0380 O.co2 217  ASP217     -0.2456
     17  OD2       43.3850   66.2370   48.5610 O.co2 217  ASP217     -0.2456
     18  N         45.5850   61.8830   50.2120 N.am  218  GLY218     -0.1943
     19  CA        47.0120   61.6460   50.0700 C.3   218  GLY218      0.1998
     20  C         47.3310   60.1640   49.9990 C.2   218  GLY218      0.2481
     21  O         46.4450   59.3710   49.6740 O.2   218  GLY218     -0.2729
     22  N         48.5800   59.7560   50.3060 N.am  219  PRO219     -0.2715
     23  CA        49.0210   58.3540   50.2750 C.3   219  PRO219      0.1536
     24  C         48.2000   57.4640   51.2070 C.2   219  PRO219      0.2598
     25  O         47.6700   57.9270   52.2220 O.2   219  PRO219     -0.2715
     26  CB        50.4850   58.4400   50.7060 C.3   219  PRO219      0.0310
     27  CG        50.8860   59.8320   50.2980 C.3   219  PRO219      0.0237
     28  CD        49.6870   60.6340   50.7200 C.3   219  PRO219      0.0939
     29  N         48.1060   56.1840   50.8590 N.am  220  ASN220     -0.1973
     30  CA        47.3380   55.2210   51.6450 C.3   220  ASN220      0.1688
     31  C         47.7200   55.2110   53.1190 C.2   220  ASN220      0.2292
     32  O         46.9100   54.8460   53.9740 O.2   220  ASN220     -0.2864
     33  CB        47.5050   53.8160   51.0610 C.3   220  ASN220      0.1181
     34  CG        46.9310   53.6930   49.6540 C.2   220  ASN220      0.2629
     35  OD1       47.0400   52.6450   49.0230 O.2   220  ASN220     -0.2716
     36  ND2       46.3170   54.7610   49.1610 N.am  220  ASN220     -0.0877
     37  N         33.2330   63.6380   50.4150 N.3   252  ARG252     -0.1245
     38  CA        34.5980   63.8520   49.9450 C.3   252  ARG252      0.1563
     39  C         35.5450   62.9250   50.7310 C.2   252  ARG252      0.2260
     40  O         36.3650   62.2130   50.1410 O.2   252  ARG252     -0.2867
     41  CB        34.9970   65.3230   50.1230 C.3   252  ARG252      0.0307
     42  CG        36.4830   65.6110   49.9210 C.3   252  ARG252      0.0489
     43  CD        36.9960   65.0590   48.5980 C.3   252  ARG252      0.2205
     44  NE        36.4950   65.7890   47.4370 N.pl3 252  ARG252     -0.0865
     45  CZ        36.8340   67.0380   47.1290 C.cat 252  ARG252      0.5346
     46  NH1       37.6790   67.7140   47.9000 N.pl3 252  ARG252      0.1354
     47  NH2       36.3390   67.6100   46.0400 N.pl3 252  ARG252      0.1354
     48  N         37.8050   59.8700   49.3100 N.3   256  ASN256     -0.1240
     49  CA        39.2620   59.8330   49.3780 C.3   256  ASN256      0.1653
     50  C         39.6970   58.4780   49.9140 C.2   256  ASN256      0.2266
     51  O         40.6790   57.9020   49.4510 O.2   256  ASN256     -0.2867
     52  CB        39.8130   60.9280   50.3030 C.3   256  ASN256      0.1155
     53  CG        39.7170   62.3140   49.6960 C.2   256  ASN256      0.2627
     54  OD1       39.6580   62.4700   48.4770 O.2   256  ASN256     -0.2716
     55  ND2       39.7230   63.3320   50.5480 N.am  256  ASN256     -0.0877
     56  N         38.2580   55.5630   49.5640 N.3   258  VAL258     -0.1231
     57  CA        38.1300   54.4520   48.6240 C.3   258  VAL258      0.1692
     58  C         39.1640   54.5110   47.5030 C.2   258  VAL258      0.2593
     59  O         39.1760   53.6480   46.6270 O.2   258  VAL258     -0.2718
     60  CB        36.7080   54.3500   48.0030 C.3   258  VAL258      0.0266
     61  CG1       35.6890   54.0710   49.0930 C.3   258  VAL258      0.0020
     62  CG2       36.3730   55.6130   47.2280 C.3   258  VAL258      0.0020
     63  N         40.0220   55.5330   47.5210 N.am  259  THR259     -0.1939
     64  CA        41.0900   55.6370   46.5250 C.3   259  THR259      0.2028
     65  C         42.2800   54.8720   47.1080 C.2   259  THR259      0.2643
     66  O         43.3240   54.7390   46.4710 O.2   259  THR259     -0.2714
     67  CB        41.5570   57.0880   46.2860 C.3   259  THR259      0.1808
     68  OG1       42.1230   57.6150   47.4960 O.3   259  THR259     -0.2208
     69  CG2       40.4030   57.9570   45.8210 C.3   259  THR259      0.0379
     70  N         42.1070   54.3800   48.3320 N.am  260  GLY260     -0.1939
     71  CA        43.1580   53.6340   49.0010 C.3   260  GLY260      0.2014
     72  C         43.1870   52.1630   48.6260 C.2   260  GLY260      0.2640
     73  O         42.8940   51.8010   47.4870 O.2   260  GLY260     -0.2714
     74  N         43.5350   51.3140   49.5880 N.am  261  THR261     -0.1936
     75  CA        43.6150   49.8730   49.3630 C.3   261  THR261      0.2028
     76  C         42.2450   49.2120   49.4070 C.2   261  THR261      0.2642
     77  O         41.3000   49.7650   49.9690 O.2   261  THR261     -0.2714
     78  CB        44.4750   49.1810   50.4340 C.3   261  THR261      0.1808
     79  OG1       43.8630   49.3630   51.7180 O.3   261  THR261     -0.2208
     80  CG2       45.8910   49.7540   50.4480 C.3   261  THR261      0.0379
     81  N         42.1540   48.0140   48.8350 N.am  262  ASP262     -0.1971
     82  CA        40.9000   47.2730   48.8250 C.3   262  ASP262      0.1709
     83  C         40.4440   47.0490   50.2600 C.2   262  ASP262      0.2293
     84  O         39.2480   47.0050   50.5420 O.2   262  ASP262     -0.2864
     85  CB        41.0670   45.9220   48.1210 C.3   262  ASP262      0.1436
     86  CG        41.5880   46.0600   46.7000 C.2   262  ASP262      0.3671
     87  OD1       41.1570   46.9880   45.9840 O.co2 262  ASP262     -0.2456
     88  OD2       42.4250   45.2290   46.2910 O.co2 262  ASP262     -0.2456
     89  N         38.9320   50.3070   51.4200 N.3   265  THR265     -0.1218
     90  CA        37.6700   50.4810   50.7200 C.3   265  THR265      0.1862
     91  C         36.6060   49.5890   51.3480 C.2   265  THR265      0.2287
     92  O         35.4610   50.0010   51.5310 O.2   265  THR265     -0.2866
     93  CB        37.8090   50.1020   49.2470 C.3   265  THR265      0.1770
     94  OG1       38.7040   51.0180   48.6090 O.3   265  THR265     -0.2211
     95  CG2       36.4490   50.1360   48.5550 C.3   265  THR265      0.0375
     96  N         32.1570   59.6160   41.1980 N.3   294  TRP294     -0.1241
     97  CA        33.6110   59.5050   41.2980 C.3   294  TRP294      0.1605
     98  C         33.9350   58.4370   42.3380 C.2   294  TRP294      0.2264
     99  O         34.7810   57.5770   42.1110 O.2   294  TRP294     -0.2867
    100  CB        34.2160   60.8470   41.7290 C.3   294  TRP294      0.0550
    101  CG        35.6390   60.7670   42.2230 C.ar  294  TRP294      0.0003
    102  CD1       36.7380   60.3600   41.5160 C.ar  294  TRP294      0.0946
    103  CD2       36.1130   61.1210   43.5300 C.ar  294  TRP294      0.0152
    104  NE1       37.8680   60.4390   42.3030 N.ar  294  TRP294     -0.2442
    105  CE2       37.5130   60.8990   43.5430 C.ar  294  TRP294      0.0810
    106  CE3       35.4920   61.6000   44.6930 C.ar  294  TRP294      0.0012
    107  CZ2       38.3020   61.1480   44.6760 C.ar  294  TRP294      0.0191
    108  CZ3       36.2790   61.8470   45.8200 C.ar  294  TRP294      0.0001
    109  CH2       37.6700   61.6160   45.8000 C.ar  294  TRP294      0.0015
    110  N         33.2710   54.9470   41.0630 N.3   297  SER297     -0.1202
    111  CA        34.2900   54.4930   40.1220 C.3   297  SER297      0.2020
    112  C         35.4920   53.8890   40.8490 C.2   297  SER297      0.2619
    113  O         36.1200   52.9560   40.3490 O.2   297  SER297     -0.2717
    114  CB        34.7720   55.6530   39.2620 C.3   297  SER297      0.2103
    115  OG        35.5780   56.5180   40.0400 O.3   297  SER297     -0.2182
    116  N         35.8270   54.4270   42.0180 N.am  298  ASN298     -0.1960
    117  CA        36.9580   53.8950   42.7650 C.3   298  ASN298      0.1819
    118  C         36.5740   52.6450   43.5420 C.2   298  ASN298      0.2621
    119  O         37.4320   51.9540   44.0870 O.2   298  ASN298     -0.2715
    120  CB        37.5510   54.9610   43.6890 C.3   298  ASN298      0.1195
    121  CG        38.3770   55.9710   42.9270 C.2   298  ASN298      0.2630
    122  OD1       39.2160   55.5950   42.1100 O.2   298  ASN298     -0.2716
    123  ND2       38.1470   57.2540   43.1800 N.am  298  ASN298     -0.0877
    124  N         35.2790   52.3530   43.5920 N.am  299  ILE299     -0.1977
    125  CA        34.8250   51.1490   44.2560 C.3   299  ILE299      0.1596
    126  C         34.7220   50.0470   43.1980 C.2   299  ILE299      0.2287
    127  O         35.0580   48.8930   43.4660 O.2   299  ILE299     -0.2864
    128  CB        33.4630   51.3470   44.9400 C.3   299  ILE299      0.0276
    129  CG1       33.6130   52.3140   46.1170 C.3   299  ILE299      0.0022
    130  CG2       32.9380   50.0090   45.4480 C.3   299  ILE299      0.0022
    131  CD1       32.3330   52.5830   46.8660 C.3   299  ILE299      0.0001
    132  N         36.5540   49.7760   40.8700 N.3   301  ALA301     -0.1231
    133  CA        37.9370   49.5120   40.4960 C.3   301  ALA301      0.1694
    134  C         38.5000   48.5110   41.4990 C.2   301  ALA301      0.2592
    135  O         39.6490   48.0930   41.3860 O.2   301  ALA301     -0.2718
    136  CB        38.7500   50.8030   40.5310 C.3   301  ALA301      0.0304
    137  N         37.6710   48.1240   42.4700 N.am  302  GLY302     -0.1957
    138  CA        38.0910   47.1810   43.4960 C.3   302  GLY302      0.1869
    139  C         37.9890   45.7100   43.1250 C.2   302  GLY302      0.2309
    140  O         38.0280   45.3530   41.9460 O.2   302  GLY302     -0.2863
    141  N         32.5870   60.7810   35.0440 N.3   333  GLU333     -0.1245
    142  CA        32.9300   59.9310   36.1820 C.3   333  GLU333      0.1567
    143  C         32.2280   58.5870   36.0290 C.2   333  GLU333      0.2260
    144  O         32.7730   57.5450   36.3860 O.2   333  GLU333     -0.2867
    145  CB        32.4910   60.5760   37.4950 C.3   333  GLU333      0.0388
    146  CG        33.2990   61.7980   37.9030 C.3   333  GLU333      0.1160
    147  CD        34.7870   61.5070   37.9960 C.2   333  GLU333      0.3649
    148  OE1       35.1610   60.3420   38.2300 O.co2 333  GLU333     -0.2457
    149  OE2       35.5870   62.4470   37.8470 O.co2 333  GLU333     -0.2457
    150  N         34.0110   56.3580   33.7080 N.3   336  TRP336     -0.1241
    151  CA        35.1460   55.7640   34.4070 C.3   336  TRP336      0.1605
    152  C         34.6670   54.6140   35.2890 C.2   336  TRP336      0.2264
    153  O         35.2850   53.5480   35.3290 O.2   336  TRP336     -0.2867
    154  CB        35.8620   56.8030   35.2790 C.3   336  TRP336      0.0550
    155  CG        36.9140   57.5990   34.5630 C.ar  336  TRP336      0.0003
    156  CD1       36.8320   58.9050   34.1600 C.ar  336  TRP336      0.0946
    157  CD2       38.2170   57.1390   34.1780 C.ar  336  TRP336      0.0152
    158  NE1       38.0040   59.2850   33.5460 N.ar  336  TRP336     -0.2442
    159  CE2       38.8690   58.2230   33.5400 C.ar  336  TRP336      0.0810
    160  CE3       38.8920   55.9170   34.3020 C.ar  336  TRP336      0.0012
    161  CZ2       40.1710   58.1220   33.0370 C.ar  336  TRP336      0.0191
    162  CZ3       40.1900   55.8160   33.8000 C.ar  336  TRP336      0.0001
    163  CH2       40.8130   56.9160   33.1700 C.ar  336  TRP336      0.0015
    164  N         34.0570   51.7090   32.9340 N.3   339  THR339     -0.1203
    165  CA        35.2560   51.0980   32.3850 C.3   339  THR339      0.1994
    166  C         36.0270   50.3390   33.4690 C.2   339  THR339      0.2617
    167  O         36.6490   49.3170   33.1870 O.2   339  THR339     -0.2717
    168  CB        36.1620   52.1520   31.7090 C.3   339  THR339      0.1784
    169  OG1       37.3390   51.5120   31.2020 O.3   339  THR339     -0.2211
    170  CG2       36.5630   53.2320   32.6960 C.3   339  THR339      0.0376
    171  N         35.9760   50.8210   34.7110 N.am  340  ASN340     -0.1974
    172  CA        36.6650   50.1400   35.8080 C.3   340  ASN340      0.1688
    173  C         35.9430   48.8330   36.1200 C.2   340  ASN340      0.2292
    174  O         36.5700   47.8020   36.3920 O.2   340  ASN340     -0.2864
    175  CB        36.6900   51.0100   37.0740 C.3   340  ASN340      0.1181
    176  CG        37.6960   52.1540   36.9930 C.2   340  ASN340      0.2629
    177  OD1       38.4560   52.2710   36.0290 O.2   340  ASN340     -0.2716
    178  ND2       37.7050   53.0000   38.0190 N.am  340  ASN340     -0.0877
    179  N         36.6190   46.2960   33.5000 N.3   343  SER343     -0.1217
    180  CA        38.0230   45.9180   33.5720 C.3   343  SER343      0.1889
    181  C         38.3120   44.8080   34.5830 C.2   343  SER343      0.2288
    182  O         39.1250   43.9210   34.3180 O.2   343  SER343     -0.2866
    183  CB        38.8730   47.1470   33.9090 C.3   343  SER343      0.2089
    184  OG        40.2410   46.8000   34.0480 O.3   343  SER343     -0.2183
    185  N         37.3190   51.9580   25.4240 N.3   379  ASP379     -0.1239
    186  CA        38.0140   51.0140   26.2730 C.3   379  ASP379      0.1674
    187  C         37.0090   50.0920   26.9650 C.2   379  ASP379      0.2266
    188  O         37.2500   48.8910   27.1090 O.2   379  ASP379     -0.2867
    189  CB        38.8220   51.7920   27.3070 C.3   379  ASP379      0.1410
    190  CG        40.0770   51.0710   27.7260 C.2   379  ASP379      0.3668
    191  OD1       39.9760   50.0700   28.4700 O.co2 379  ASP379     -0.2456
    192  OD2       41.1680   51.5060   27.2970 O.co2 379  ASP379     -0.2456
    193  N         36.4170   45.8210   26.6330 N.3   383  ASN383     -0.1240
    194  CA        36.2760   44.8980   27.7540 C.3   383  ASN383      0.1653
    195  C         34.9700   44.1080   27.6690 C.2   383  ASN383      0.2266
    196  O         34.9190   42.9430   28.0630 O.2   383  ASN383     -0.2867
    197  CB        36.3160   45.6460   29.0970 C.3   383  ASN383      0.1155
    198  CG        37.6060   46.4240   29.3050 C.2   383  ASN383      0.2627
    199  OD1       38.7000   45.9310   29.0190 O.2   383  ASN383     -0.2716
    200  ND2       37.4820   47.6420   29.8240 N.am  383  ASN383     -0.0877
@<TRIPOS>BOND
     1   185   186    1
     2   186   187    1
     3   186   189    1
     4   193   194    1
     5   187   188    2
     6   192   190   ar
     7   189   190    1
     8   195   194    1
     9   195   196    2
    10   190   191   ar
    11   194   197    1
    12   199   198    2
    13   197   198    1
    14   198   200   am
    15   169   168    1
    16   168   165    1
    17   168   170    1
    18   165   164    1
    19   165   166    1
    20   161   163   ar
    21   161   159   ar
    22   163   162   ar
    23   167   166    2
    24   166   171   am
    25   179   180    1
    26   159   158   ar
    27   159   157   ar
    28   158   156   ar
    29   180   183    1
    30   180   181    1
    31   150   151    1
    32   162   160   ar
    33   183   184    1
    34   156   155   ar
    35   157   160   ar
    36   157   155   ar
    37   182   181    2
    38   151   154    1
    39   151   152    1
    40   155   154    1
    41   171   172    1
    42   141   142    1
    43   152   153    2
    44   172   173    1
    45   172   175    1
    46   143   142    1
    47   143   144    2
    48   177   176    2
    49   173   174    2
    50   142   145    1
    51   176   175    1
    52   176   178   am
    53   145   146    1
    54   149   147   ar
    55   146   147    1
    56   147   148   ar
    57   114   115    1
    58   114   111    1
    59   111   112    1
    60   111   110    1
    61   113   112    2
    62   133   136    1
    63   133   132    1
    64   133   134    1
    65   112   116   am
    66    96    97    1
    67    97   100    1
    68    97    98    1
    69   135   134    2
    70   134   137   am
    71   102   101   ar
    72   102   104   ar
    73   100   101    1
    74   140   139    2
    75   116   117    1
    76   122   121    2
    77    99    98    2
    78   101   103   ar
    79   104   105   ar
    80   137   138    1
    81   117   118    1
    82   117   120    1
    83   121   123   am
    84   121   120    1
    85   139   138    1
    86   126   127    2
    87   126   125    1
    88   103   105   ar
    89   103   106   ar
    90   118   124   am
    91   118   119    2
    92   105   107   ar
    93   124   125    1
    94   125   128    1
    95   107   109   ar
    96   106   108   ar
    97   128   130    1
    98   128   129    1
    99   109   108   ar
   100    69    67    1
   101    87    86   ar
   102    47    45    1
   103   129   131    1
   104    67    64    1
   105    67    68    1
   106    88    86   ar
   107    66    65    2
   108    64    65    1
   109    64    63    1
   110    59    58    2
   111    86    85    1
   112     9     8    1
   113    65    70   am
   114    45    44    2
   115    45    46    1
   116    62    60    1
   117    44    43    1
   118    73    72    2
   119    58    63   am
   120    58    57    1
   121    60    57    1
   122    60    61    1
   123    16    15   ar
   124    85    82    1
   125     8     7    1
   126    70    71    1
   127    54    53    2
   128    95    93    1
   129    17    15   ar
   130    43    42    1
   131    94    93    1
   132    57    56    1
   133    72    71    1
   134    72    74   am
   135    82    81    1
   136    82    83    1
   137    81    76   am
   138    15    14    1
   139    35    34    2
   140    36    34   am
   141    93    90    1
   142     7     6    1
   143    48    49    1
   144    75    76    1
   145    75    74    1
   146    75    78    1
   147    49    50    1
   148    49    52    1
   149    76    77    2
   150    51    50    2
   151    34    33    1
   152    21    20    2
   153    53    52    1
   154    53    55   am
   155     5     6    1
   156     5     2    1
   157    42    41    1
   158    38    41    1
   159    38    37    1
   160    38    39    1
   161    20    19    1
   162    20    22   am
   163    19    18    1
   164    40    39    2
   165    18    12   am
   166    83    84    2
   167    23    22    1
   168    23    26    1
   169    23    24    1
   170    27    26    1
   171    27    28    1
   172    22    28    1
   173    14    11    1
   174     3     4    2
   175     3     2    1
   176    78    80    1
   177    78    79    1
   178    12    11    1
   179    12    13    2
   180    11    10    1
   181    90    91    1
   182    90    89    1
   183     2     1    1
   184    29    24   am
   185    29    30    1
   186    33    30    1
   187    24    25    2
   188    91    92    2
   189    30    31    1
   190    31    32    2
