@<TRIPOS>MOLECULE
tmp/1q1tC00.pdb
 206 195 0 0 0
SMALL
GASTEIGER

@<TRIPOS>ATOM
      1  N         48.6730   69.8710   51.4180 N.3   171  LYS171     -0.1245
      2  CA        49.4300   68.6780   51.0460 C.3   171  LYS171      0.1561
      3  C         50.9130   68.6780   50.6660 C.2   171  LYS171      0.2260
      4  O         51.5490   67.6180   50.7230 O.2   171  LYS171     -0.2867
      5  CB        48.6770   67.9520   49.9240 C.3   171  LYS171      0.0271
      6  CG        47.9320   66.7100   50.3730 C.3   171  LYS171      0.0035
      7  CD        47.5950   65.8080   49.1870 C.3   171  LYS171      0.0206
      8  CE        46.6950   66.5120   48.1820 C.3   171  LYS171      0.1093
      9  NZ        46.3190   65.6210   47.0490 N.3   171  LYS171     -0.1314
     10  N         42.7540   62.1540   54.8240 N.3   210  THR210     -0.1203
     11  CA        42.6030   60.9610   53.9980 C.3   210  THR210      0.1994
     12  C         42.9390   61.2310   52.5360 C.2   210  THR210      0.2618
     13  O         42.8460   60.3430   51.6960 O.2   210  THR210     -0.2717
     14  CB        41.1700   60.4180   54.0630 C.3   210  THR210      0.1784
     15  OG1       40.2590   61.4530   53.6830 O.3   210  THR210     -0.2211
     16  CG2       40.8440   59.9340   55.4620 C.3   210  THR210      0.0376
     17  N         43.3290   62.4630   52.2380 N.am  211  ASP211     -0.1959
     18  CA        43.6730   62.8530   50.8810 C.3   211  ASP211      0.1840
     19  C         45.1810   62.7570   50.6720 C.2   211  ASP211      0.2623
     20  O         45.8930   63.7560   50.7530 O.2   211  ASP211     -0.2715
     21  CB        43.1820   64.2800   50.6280 C.3   211  ASP211      0.1450
     22  CG        43.5690   64.8130   49.2580 C.2   211  ASP211      0.3671
     23  OD1       43.9690   64.0230   48.3690 O.co2 211  ASP211     -0.2456
     24  OD2       43.4560   66.0440   49.0710 O.co2 211  ASP211     -0.2456
     25  N         45.6640   61.5490   50.4070 N.am  212  GLY212     -0.1940
     26  CA        47.0840   61.3600   50.1960 C.3   212  GLY212      0.1998
     27  C         47.4600   59.8970   50.0700 C.2   212  GLY212      0.2481
     28  O         46.6310   59.0730   49.6660 O.2   212  GLY212     -0.2729
     29  N         48.7130   59.5420   50.4090 N.am  213  PRO213     -0.2715
     30  CA        49.2100   58.1610   50.3340 C.3   213  PRO213      0.1536
     31  C         48.4110   57.2560   51.2660 C.2   213  PRO213      0.2598
     32  O         48.0490   57.6570   52.3710 O.2   213  PRO213     -0.2715
     33  CB        50.6670   58.2920   50.7710 C.3   213  PRO213      0.0310
     34  CG        51.0070   59.7070   50.4160 C.3   213  PRO213      0.0237
     35  CD        49.7800   60.4540   50.8500 C.3   213  PRO213      0.0939
     36  N         48.1520   56.0320   50.8220 N.am  214  ASN214     -0.1973
     37  CA        47.3770   55.0820   51.6130 C.3   214  ASN214      0.1688
     38  C         47.8160   54.9290   53.0720 C.2   214  ASN214      0.2292
     39  O         47.0300   54.4690   53.9080 O.2   214  ASN214     -0.2864
     40  CB        47.3740   53.7210   50.9210 C.3   214  ASN214      0.1181
     41  CG        46.8060   53.7870   49.5190 C.2   214  ASN214      0.2629
     42  OD1       46.7940   52.7930   48.8010 O.2   214  ASN214     -0.2716
     43  ND2       46.3340   54.9570   49.1210 N.am  214  ASN214     -0.0877
     44  N         45.7460   57.3790   54.9330 N.3   217  ILE217     -0.1245
     45  CA        44.3860   56.8820   55.0540 C.3   217  ILE217      0.1561
     46  C         44.3390   55.8730   56.2000 C.2   217  ILE217      0.2260
     47  O         43.3900   55.8500   56.9860 O.2   217  ILE217     -0.2867
     48  CB        43.9400   56.2000   53.7350 C.3   217  ILE217      0.0252
     49  CG1       43.9280   57.2330   52.6080 C.3   217  ILE217      0.0019
     50  CG2       42.5570   55.5670   53.8900 C.3   217  ILE217      0.0019
     51  CD1       43.6790   56.6410   51.2510 C.3   217  ILE217      0.0001
     52  N         33.4510   63.3440   50.8120 N.3   246  ARG246     -0.1245
     53  CA        34.8210   63.5490   50.3760 C.3   246  ARG246      0.1563
     54  C         35.7230   62.5760   51.1330 C.2   246  ARG246      0.2260
     55  O         36.5700   61.9150   50.5390 O.2   246  ARG246     -0.2867
     56  CB        35.2830   64.9780   50.6580 C.3   246  ARG246      0.0307
     57  CG        36.7560   65.1950   50.3400 C.3   246  ARG246      0.0489
     58  CD        37.0040   65.0180   48.8510 C.3   246  ARG246      0.2205
     59  NE        36.2480   66.0180   48.1050 N.pl3 246  ARG246     -0.0865
     60  CZ        36.6330   67.2800   47.9440 C.cat 246  ARG246      0.5346
     61  NH1       37.7800   67.7000   48.4670 N.pl3 246  ARG246      0.1354
     62  NH2       35.8560   68.1300   47.2880 N.pl3 246  ARG246      0.1354
     63  N         37.7890   59.5300   49.5780 N.3   250  ASN250     -0.1240
     64  CA        39.2500   59.4690   49.6420 C.3   250  ASN250      0.1653
     65  C         39.6980   58.1030   50.1510 C.2   250  ASN250      0.2266
     66  O         40.6720   57.5320   49.6570 O.2   250  ASN250     -0.2867
     67  CB        39.8230   60.5370   50.5820 C.3   250  ASN250      0.1155
     68  CG        39.8510   61.9170   49.9640 C.2   250  ASN250      0.2627
     69  OD1       39.9310   62.0670   48.7440 O.2   250  ASN250     -0.2716
     70  ND2       39.8110   62.9400   50.8140 N.am  250  ASN250     -0.0877
     71  N         38.2900   55.1770   49.8380 N.3   252  VAL252     -0.1231
     72  CA        38.1700   54.1040   48.8620 C.3   252  VAL252      0.1692
     73  C         39.1980   54.1950   47.7370 C.2   252  VAL252      0.2593
     74  O         39.2120   53.3500   46.8450 O.2   252  VAL252     -0.2718
     75  CB        36.7470   54.0320   48.2650 C.3   252  VAL252      0.0266
     76  CG1       35.7620   53.6050   49.3480 C.3   252  VAL252      0.0020
     77  CG2       36.3490   55.3770   47.6740 C.3   252  VAL252      0.0020
     78  N         40.0520   55.2180   47.7700 N.am  253  THR253     -0.1939
     79  CA        41.1100   55.3450   46.7660 C.3   253  THR253      0.2028
     80  C         42.3220   54.5660   47.2930 C.2   253  THR253      0.2642
     81  O         43.3380   54.4310   46.6080 O.2   253  THR253     -0.2714
     82  CB        41.5720   56.8000   46.5590 C.3   253  THR253      0.1808
     83  OG1       42.1790   57.2810   47.7660 O.3   253  THR253     -0.2208
     84  CG2       40.4090   57.6890   46.1660 C.3   253  THR253      0.0379
     85  N         42.2050   54.0610   48.5180 N.am  254  GLY254     -0.1954
     86  CA        43.2930   53.3100   49.1190 C.3   254  GLY254      0.1869
     87  C         43.3480   51.8550   48.6920 C.2   254  GLY254      0.2309
     88  O         43.1410   51.5340   47.5190 O.2   254  GLY254     -0.2863
     89  N         42.2710   47.6490   48.9660 N.3   256  ASP256     -0.1239
     90  CA        41.0030   46.9360   48.9580 C.3   256  ASP256      0.1674
     91  C         40.5000   46.7580   50.3860 C.2   256  ASP256      0.2266
     92  O         39.2960   46.7840   50.6330 O.2   256  ASP256     -0.2867
     93  CB        41.1520   45.5660   48.2930 C.3   256  ASP256      0.1410
     94  CG        41.7630   45.6500   46.9070 C.2   256  ASP256      0.3668
     95  OD1       41.4150   46.5750   46.1440 O.co2 256  ASP256     -0.2456
     96  OD2       42.5900   44.7760   46.5760 O.co2 256  ASP256     -0.2456
     97  N         38.9430   49.9790   51.4890 N.3   259  THR259     -0.1218
     98  CA        37.6900   50.1450   50.7630 C.3   259  THR259      0.1862
     99  C         36.6130   49.2850   51.4350 C.2   259  THR259      0.2287
    100  O         35.4880   49.7350   51.6730 O.2   259  THR259     -0.2866
    101  CB        37.8420   49.7000   49.2900 C.3   259  THR259      0.1770
    102  OG1       38.8220   50.5180   48.6400 O.3   259  THR259     -0.2211
    103  CG2       36.5200   49.8290   48.5500 C.3   259  THR259      0.0375
    104  N         28.4350   64.1760   41.5650 N.3   284  LYS284     -0.1231
    105  CA        29.7100   63.9470   40.8930 C.3   284  LYS284      0.1693
    106  C         30.6830   63.1630   41.7750 C.2   284  LYS284      0.2591
    107  O         31.2830   62.1720   41.3390 O.2   284  LYS284     -0.2718
    108  CB        30.3330   65.2940   40.5020 C.3   284  LYS284      0.0285
    109  CG        31.3670   65.2230   39.3870 C.3   284  LYS284      0.0035
    110  CD        32.7500   65.6220   39.8680 C.3   284  LYS284      0.0206
    111  CE        32.8080   67.0750   40.3010 C.3   284  LYS284      0.1093
    112  NZ        34.1890   67.4390   40.7370 N.3   284  LYS284     -0.1314
    113  N         30.8330   63.5990   43.0210 N.am  285  GLU285     -0.1979
    114  CA        31.7410   62.9350   43.9410 C.3   285  GLU285      0.1602
    115  C         31.2500   61.5530   44.3400 C.2   285  GLU285      0.2287
    116  O         32.0400   60.6960   44.7430 O.2   285  GLU285     -0.2864
    117  CB        31.9370   63.7890   45.1820 C.3   285  GLU285      0.0415
    118  CG        32.3630   65.1890   44.8520 C.3   285  GLU285      0.1163
    119  CD        33.5300   65.6460   45.6840 C.2   285  GLU285      0.3649
    120  OE1       33.7610   65.0550   46.7590 O.co2 285  GLU285     -0.2457
    121  OE2       34.2090   66.6070   45.2680 O.co2 285  GLU285     -0.2457
    122  N         32.2580   59.4170   41.4650 N.3   288  TRP288     -0.1241
    123  CA        33.7120   59.2900   41.5420 C.3   288  TRP288      0.1605
    124  C         34.0120   58.2320   42.5960 C.2   288  TRP288      0.2264
    125  O         34.8300   57.3430   42.3810 O.2   288  TRP288     -0.2867
    126  CB        34.3420   60.6180   41.9710 C.3   288  TRP288      0.0550
    127  CG        35.7490   60.4920   42.5010 C.ar  288  TRP288      0.0003
    128  CD1       36.8590   60.1020   41.8020 C.ar  288  TRP288      0.0946
    129  CD2       36.1980   60.7900   43.8290 C.ar  288  TRP288      0.0152
    130  NE1       37.9690   60.1430   42.6110 N.ar  288  TRP288     -0.2442
    131  CE2       37.5940   60.5610   43.8580 C.ar  288  TRP288      0.0810
    132  CE3       35.5600   61.2310   44.9940 C.ar  288  TRP288      0.0012
    133  CZ2       38.3640   60.7600   45.0150 C.ar  288  TRP288      0.0191
    134  CZ3       36.3280   61.4300   46.1480 C.ar  288  TRP288      0.0001
    135  CH2       37.7170   61.1930   46.1440 C.ar  288  TRP288      0.0015
    136  N         33.2370   54.8670   41.2910 N.3   291  SER291     -0.1202
    137  CA        34.2480   54.4280   40.3300 C.3   291  SER291      0.2020
    138  C         35.4560   53.7770   40.9990 C.2   291  SER291      0.2618
    139  O         36.0480   52.8580   40.4410 O.2   291  SER291     -0.2717
    140  CB        34.7260   55.6030   39.4730 C.3   291  SER291      0.2103
    141  OG        35.5620   56.4640   40.2260 O.3   291  SER291     -0.2182
    142  N         35.8380   54.2520   42.1800 N.am  292  ASN292     -0.1974
    143  CA        36.9740   53.6490   42.8650 C.3   292  ASN292      0.1688
    144  C         36.5600   52.3700   43.5760 C.2   292  ASN292      0.2292
    145  O         37.4060   51.5790   43.9930 O.2   292  ASN292     -0.2864
    146  CB        37.6130   54.6330   43.8460 C.3   292  ASN292      0.1181
    147  CG        38.4430   55.6760   43.1390 C.2   292  ASN292      0.2629
    148  OD1       39.2760   55.3430   42.2920 O.2   292  ASN292     -0.2716
    149  ND2       38.2250   56.9430   43.4720 N.am  292  ASN292     -0.0877
    150  N         34.2540   50.2680   42.0640 N.3   294  THR294     -0.1203
    151  CA        34.1690   49.2840   40.9890 C.3   294  THR294      0.1994
    152  C         35.5850   48.9450   40.5190 C.2   294  THR294      0.2618
    153  O         35.7920   48.0020   39.7600 O.2   294  THR294     -0.2717
    154  CB        33.3270   49.7790   39.7900 C.3   294  THR294      0.1784
    155  OG1       33.8690   51.0020   39.2850 O.3   294  THR294     -0.2211
    156  CG2       31.8830   49.9830   40.2100 C.3   294  THR294      0.0376
    157  N         36.5570   49.7200   40.9890 N.am  295  ALA295     -0.1965
    158  CA        37.9530   49.4850   40.6520 C.3   295  ALA295      0.1728
    159  C         38.5240   48.4980   41.6730 C.2   295  ALA295      0.2616
    160  O         39.7150   48.1880   41.6510 O.2   295  ALA295     -0.2715
    161  CB        38.7290   50.7930   40.6950 C.3   295  ALA295      0.0334
    162  N         37.6600   48.0030   42.5590 N.am  296  GLY296     -0.1955
    163  CA        38.0860   47.0670   43.5850 C.3   296  GLY296      0.1869
    164  C         38.0080   45.6060   43.1810 C.2   296  GLY296      0.2309
    165  O         38.0600   45.2810   41.9900 O.2   296  GLY296     -0.2863
    166  N         32.6330   60.5960   35.2480 N.3   327  GLU327     -0.1245
    167  CA        32.9980   59.7690   36.3980 C.3   327  GLU327      0.1567
    168  C         32.2330   58.4540   36.2720 C.2   327  GLU327      0.2260
    169  O         32.6520   57.4180   36.7860 O.2   327  GLU327     -0.2867
    170  CB        32.6110   60.4680   37.7070 C.3   327  GLU327      0.0388
    171  CG        33.3090   61.8050   37.9350 C.3   327  GLU327      0.1160
    172  CD        34.7430   61.6470   38.4210 C.2   327  GLU327      0.3649
    173  OE1       35.3330   60.5780   38.1920 O.co2 327  GLU327     -0.2457
    174  OE2       35.2860   62.5960   39.0280 O.co2 327  GLU327     -0.2457
    175  N         34.1700   56.1680   33.9150 N.3   330  TRP330     -0.1241
    176  CA        35.2600   55.5040   34.6290 C.3   330  TRP330      0.1605
    177  C         34.7550   54.3400   35.4620 C.2   330  TRP330      0.2264
    178  O         35.3230   53.2480   35.4240 O.2   330  TRP330     -0.2867
    179  CB        36.0040   56.4810   35.5450 C.3   330  TRP330      0.0550
    180  CG        37.0420   57.2900   34.8420 C.ar  330  TRP330      0.0003
    181  CD1       36.9270   58.5790   34.4110 C.ar  330  TRP330      0.0946
    182  CD2       38.3570   56.8560   34.4740 C.ar  330  TRP330      0.0152
    183  NE1       38.0930   58.9780   33.7950 N.ar  330  TRP330     -0.2442
    184  CE2       38.9880   57.9390   33.8200 C.ar  330  TRP330      0.0810
    185  CE3       39.0670   55.6550   34.6300 C.ar  330  TRP330      0.0012
    186  CZ2       40.2940   57.8610   33.3270 C.ar  330  TRP330      0.0191
    187  CZ3       40.3710   55.5760   34.1380 C.ar  330  TRP330      0.0001
    188  CH2       40.9670   56.6750   33.4930 C.ar  330  TRP330      0.0015
    189  N         36.0440   50.6090   34.9290 N.3   334  ASN334     -0.1240
    190  CA        36.6910   49.8850   36.0170 C.3   334  ASN334      0.1653
    191  C         35.9520   48.5970   36.3180 C.2   334  ASN334      0.2266
    192  O         36.5600   47.5620   36.6090 O.2   334  ASN334     -0.2867
    193  CB        36.7490   50.7410   37.2780 C.3   334  ASN334      0.1155
    194  CG        37.7640   51.8530   37.1740 C.2   334  ASN334      0.2627
    195  OD1       38.7320   51.7560   36.4160 O.2   334  ASN334     -0.2716
    196  ND2       37.5640   52.9100   37.9490 N.am  334  ASN334     -0.0877
    197  N         36.7450   46.0080   33.5670 N.3   337  SER337     -0.1202
    198  CA        38.1100   45.4960   33.5340 C.3   337  SER337      0.2020
    199  C         38.3870   44.5110   34.6660 C.2   337  SER337      0.2619
    200  O         39.2390   43.6290   34.5320 O.2   337  SER337     -0.2717
    201  CB        39.1210   46.6460   33.5980 C.3   337  SER337      0.2103
    202  OG        39.1450   47.2390   34.8840 O.3   337  SER337     -0.2182
    203  N         37.6640   44.6410   35.7740 N.am  338  GLY338     -0.1956
    204  CA        37.9000   43.7390   36.8880 C.3   338  GLY338      0.1869
    205  C         36.7580   42.8050   37.2250 C.2   338  GLY338      0.2309
    206  O         36.9000   41.9160   38.0770 O.2   338  GLY338     -0.2863
@<TRIPOS>BOND
     1   186   188   ar
     2   186   184   ar
     3   188   187   ar
     4   198   197    1
     5   198   201    1
     6   198   199    1
     7   201   202    1
     8   183   184   ar
     9   183   181   ar
    10   184   182   ar
    11   175   176    1
    12   187   185   ar
    13   181   180   ar
    14   182   185   ar
    15   182   180   ar
    16   200   199    2
    17   176   177    1
    18   176   179    1
    19   199   203   am
    20   180   179    1
    21   189   190    1
    22   166   167    1
    23   178   177    2
    24   203   204    1
    25   190   191    1
    26   190   193    1
    27   168   167    1
    28   168   169    2
    29   191   192    2
    30   167   170    1
    31   195   194    2
    32   204   205    1
    33   194   193    1
    34   194   196   am
    35   205   206    2
    36   170   171    1
    37   171   172    1
    38   173   172   ar
    39   172   174   ar
    40   155   154    1
    41   109   110    1
    42   109   108    1
    43   140   141    1
    44   140   137    1
    45   153   152    2
    46   154   156    1
    47   154   151    1
    48   110   111    1
    49   111   112    1
    50   137   138    1
    51   137   136    1
    52   139   138    2
    53   108   105    1
    54   152   151    1
    55   152   157   am
    56   158   161    1
    57   158   157    1
    58   158   159    1
    59   105   104    1
    60   105   106    1
    61   151   150    1
    62   138   142   am
    63   107   106    2
    64   122   123    1
    65   123   126    1
    66   123   124    1
    67   160   159    2
    68   159   162   am
    69   106   113   am
    70   128   127   ar
    71   128   130   ar
    72   126   127    1
    73   165   164    2
    74   142   143    1
    75   148   147    2
    76   125   124    2
    77   127   129   ar
    78   162   163    1
    79   130   131   ar
    80   143   144    1
    81   143   146    1
    82   113   114    1
    83   147   149   am
    84   147   146    1
    85   164   163    1
    86   144   145    2
    87   129   131   ar
    88   129   132   ar
    89   131   133   ar
    90   114   115    1
    91   114   117    1
    92   115   116    2
    93   118   117    1
    94   118   119    1
    95   132   134   ar
    96   133   135   ar
    97   121   119   ar
    98   119   120   ar
    99   135   134   ar
   100    95    94   ar
   101    84    82    1
   102    82    79    1
   103    82    83    1
   104    96    94   ar
   105    81    80    2
   106    79    80    1
   107    79    78    1
   108    74    73    2
   109    94    93    1
   110     9     8    1
   111    62    60    1
   112    80    85   am
   113    88    87    2
   114    77    75    1
   115    73    78   am
   116    73    72    1
   117    60    59    2
   118    60    61    1
   119    59    58    1
   120     8     7    1
   121    75    72    1
   122    75    76    1
   123    93    90    1
   124    23    22   ar
   125    85    86    1
   126   103   101    1
   127   102   101    1
   128    87    86    1
   129    69    68    2
   130    42    41    2
   131    58    57    1
   132    72    71    1
   133    90    89    1
   134    90    91    1
   135    24    22   ar
   136    43    41   am
   137     7     6    1
   138    22    21    1
   139   101    98    1
   140    41    40    1
   141    63    64    1
   142    64    65    1
   143    64    67    1
   144    66    65    2
   145    28    27    2
   146     5     6    1
   147     5     2    1
   148    68    67    1
   149    68    70   am
   150    27    26    1
   151    27    29   am
   152    26    25    1
   153    30    29    1
   154    30    33    1
   155    30    31    1
   156    57    56    1
   157    53    56    1
   158    53    52    1
   159    53    54    1
   160    91    92    2
   161    25    19   am
   162    29    35    1
   163    34    33    1
   164    34    35    1
   165    55    54    2
   166    21    18    1
   167     3     4    2
   168     3     2    1
   169    19    20    2
   170    19    18    1
   171    98    99    1
   172    98    97    1
   173    36    31   am
   174    36    37    1
   175    18    17    1
   176    40    37    1
   177     2     1    1
   178    51    49    1
   179    31    32    2
   180    99   100    2
   181    37    38    1
   182    13    12    2
   183    17    12   am
   184    12    11    1
   185    49    48    1
   186    38    39    2
   187    15    14    1
   188    48    50    1
   189    48    45    1
   190    11    14    1
   191    11    10    1
   192    14    16    1
   193    44    45    1
   194    45    46    1
   195    46    47    2
