@<TRIPOS>MOLECULE
tmp/1q1yA00.pdb
 152 143 0 0 0
SMALL
GASTEIGER

@<TRIPOS>ATOM
      1  N        -10.6570  152.7880   42.6070 N.3    45  GLN45      -0.1245
      2  CA        -9.8810  152.8350   43.8390 C.3    45  GLN45       0.1566
      3  C         -9.0520  154.1010   43.9870 C.2    45  GLN45       0.2260
      4  O         -8.4310  154.3290   45.0300 O.2    45  GLN45      -0.2867
      5  CB        -8.9890  151.5940   43.9380 C.3    45  GLN45       0.0367
      6  CG        -9.7520  150.3440   44.3480 C.3    45  GLN45       0.0905
      7  CD        -8.8970  149.0940   44.3200 C.2    45  GLN45       0.2608
      8  OE1       -7.7300  149.1210   44.7080 O.2    45  GLN45      -0.2717
      9  NE2       -9.4790  147.9850   43.8720 N.am   45  GLN45      -0.0878
     10  N        -17.9730  153.8930   42.1520 N.3    56  ARG56      -0.1231
     11  CA       -18.1310  153.1600   43.4000 C.3    56  ARG56       0.1694
     12  C        -16.8950  152.2650   43.4950 C.2    56  ARG56       0.2593
     13  O        -16.6060  151.4960   42.5770 O.2    56  ARG56      -0.2718
     14  CB       -19.4100  152.3190   43.3400 C.3    56  ARG56       0.0321
     15  CG       -19.8300  151.6610   44.6420 C.3    56  ARG56       0.0489
     16  CD       -21.1590  150.9290   44.4560 C.3    56  ARG56       0.2205
     17  NE       -21.5990  150.2360   45.6660 N.pl3  56  ARG56      -0.0865
     18  CZ       -22.6360  149.4020   45.7140 C.cat  56  ARG56       0.5346
     19  NH1      -23.3420  149.1550   44.6190 N.pl3  56  ARG56       0.1354
     20  NH2      -22.9640  148.8100   46.8550 N.pl3  56  ARG56       0.1354
     21  N        -16.1580  152.3870   44.5940 N.am   57  SER57      -0.1938
     22  CA       -14.9400  151.6100   44.7950 C.3    57  SER57       0.2055
     23  C        -15.2140  150.1090   44.8180 C.2    57  SER57       0.2644
     24  O        -16.1450  149.6520   45.4840 O.2    57  SER57      -0.2714
     25  CB       -14.2640  152.0320   46.1050 C.3    57  SER57       0.2130
     26  OG       -13.0380  151.3500   46.2920 O.3    57  SER57      -0.2179
     27  N        -14.3970  149.3500   44.0900 N.am   58  GLY58      -0.1939
     28  CA       -14.5630  147.9060   44.0410 C.3    58  GLY58       0.2014
     29  C        -13.2440  147.1740   43.8630 C.2    58  GLY58       0.2639
     30  O        -12.2580  147.7670   43.4210 O.2    58  GLY58      -0.2714
     31  N        -13.2190  145.8850   44.2000 N.am   59  VAL59      -0.1963
     32  CA       -11.9990  145.0950   44.0710 C.3    59  VAL59       0.1727
     33  C        -12.1500  143.9390   43.0810 C.2    59  VAL59       0.2616
     34  O        -11.2170  143.1590   42.8730 O.2    59  VAL59      -0.2715
     35  CB       -11.5540  144.5370   45.4440 C.3    59  VAL59       0.0290
     36  CG1      -11.2500  145.6890   46.3900 C.3    59  VAL59       0.0023
     37  CG2      -12.6420  143.6500   46.0310 C.3    59  VAL59       0.0023
     38  N        -13.3250  143.8360   42.4650 N.am   60  GLY60      -0.1955
     39  CA       -13.5600  142.7790   41.4960 C.3    60  GLY60       0.1869
     40  C        -14.6360  143.1460   40.4880 C.2    60  GLY60       0.2309
     41  O        -15.5320  143.9400   40.7870 O.2    60  GLY60      -0.2863
     42  N        -21.1890  141.7400   34.2770 N.3    65  GLN65      -0.1245
     43  CA       -21.5920  142.9880   34.9120 C.3    65  GLN65       0.1566
     44  C        -21.5970  144.1720   33.9450 C.2    65  GLN65       0.2260
     45  O        -22.2370  145.1900   34.2170 O.2    65  GLN65      -0.2867
     46  CB       -20.7080  143.2820   36.1320 C.3    65  GLN65       0.0367
     47  CG       -21.0340  142.3810   37.3240 C.3    65  GLN65       0.0905
     48  CD       -20.1310  142.6160   38.5160 C.2    65  GLN65       0.2608
     49  OE1      -18.9600  142.2360   38.5040 O.2    65  GLN65      -0.2717
     50  NE2      -20.6700  143.2540   39.5540 N.am   65  GLN65      -0.0878
     51  N        -17.4370  137.3490   55.4430 N.3   105  LEU105     -0.1245
     52  CA       -17.1110  138.6930   55.9030 C.3   105  LEU105      0.1561
     53  C        -18.1950  138.9960   56.9390 C.2   105  LEU105      0.2260
     54  O        -19.3830  138.8030   56.6760 O.2   105  LEU105     -0.2867
     55  CB       -17.1720  139.6940   54.7470 C.3   105  LEU105      0.0270
     56  CG       -16.2020  139.4100   53.5950 C.3   105  LEU105      0.0019
     57  CD1      -16.3310  140.4880   52.5450 C.3   105  LEU105      0.0001
     58  CD2      -14.7760  139.3580   54.1240 C.3   105  LEU105      0.0001
     59  N        -21.7340  141.1800   52.1520 N.3   109  GLU109     -0.1231
     60  CA       -21.0530  141.5860   50.9310 C.3   109  GLU109      0.1699
     61  C        -21.8320  142.6520   50.1730 C.2   109  GLU109      0.2592
     62  O        -23.0290  142.8290   50.3830 O.2   109  GLU109     -0.2718
     63  CB       -20.8400  140.3770   50.0160 C.3   109  GLU109      0.0402
     64  CG       -19.9330  139.3040   50.5980 C.3   109  GLU109      0.1161
     65  CD       -19.7030  138.1520   49.6320 C.2   109  GLU109      0.3649
     66  OE1      -20.0460  138.3000   48.4390 O.co2 109  GLU109     -0.2457
     67  OE2      -19.1730  137.1050   50.0650 O.co2 109  GLU109     -0.2457
     68  N        -21.1290  143.3600   49.2980 N.am  110  GLY110     -0.1957
     69  CA       -21.7440  144.3920   48.4850 C.3   110  GLY110      0.1869
     70  C        -21.5040  144.0510   47.0280 C.2   110  GLY110      0.2309
     71  O        -20.5820  143.2940   46.7130 O.2   110  GLY110     -0.2863
     72  N        -21.5320  145.7660   42.8670 N.3   111  LEU111     -0.1245
     73  CA       -21.6180  146.9450   42.0120 C.3   111  LEU111      0.1561
     74  C        -22.9240  147.0020   41.2300 C.2   111  LEU111      0.2260
     75  O        -23.3640  148.0780   40.8350 O.2   111  LEU111     -0.2867
     76  CB       -20.4460  146.9790   41.0310 C.3   111  LEU111      0.0270
     77  CG       -19.0540  147.2450   41.6070 C.3   111  LEU111      0.0019
     78  CD1      -18.0250  147.1430   40.4930 C.3   111  LEU111      0.0001
     79  CD2      -19.0140  148.6230   42.2570 C.3   111  LEU111      0.0001
     80  N        -27.7310  148.0750   49.8930 N.3   116  ASN116     -0.1240
     81  CA       -27.1270  147.0110   50.6810 C.3   116  ASN116      0.1653
     82  C        -28.1570  145.9690   51.0790 C.2   116  ASN116      0.2266
     83  O        -29.3240  146.2870   51.3140 O.2   116  ASN116     -0.2867
     84  CB       -26.4900  147.5820   51.9510 C.3   116  ASN116      0.1155
     85  CG       -25.1620  148.2580   51.6850 C.2   116  ASN116      0.2627
     86  OD1      -24.9610  149.4240   52.0380 O.2   116  ASN116     -0.2716
     87  ND2      -24.2420  147.5250   51.0650 N.am  116  ASN116     -0.0877
     88  N        -10.0990  136.4620   52.6950 N.3   146  TYR146     -0.1241
     89  CA       -10.6290  137.5690   51.9040 C.3   146  TYR146      0.1605
     90  C        -10.4990  137.3980   50.3860 C.2   146  TYR146      0.2264
     91  O        -11.4940  137.5000   49.6610 O.2   146  TYR146     -0.2867
     92  CB        -9.9740  138.8850   52.3410 C.3   146  TYR146      0.0534
     93  CG       -10.5650  140.0920   51.6590 C.ar  146  TYR146     -0.0201
     94  CD1      -11.8980  140.4450   51.8650 C.ar  146  TYR146     -0.0009
     95  CD2       -9.8110  140.8530   50.7690 C.ar  146  TYR146     -0.0009
     96  CE1      -12.4670  141.5210   51.1970 C.ar  146  TYR146      0.0417
     97  CE2      -10.3740  141.9350   50.0950 C.ar  146  TYR146      0.0417
     98  CZ       -11.7010  142.2590   50.3150 C.ar  146  TYR146      0.1957
     99  OH       -12.2650  143.3220   49.6490 O.3   146  TYR146     -0.2866
    100  N        -12.7270  134.7700   49.0170 N.3   149  ILE149     -0.1231
    101  CA       -14.1090  135.2320   48.9820 C.3   149  ILE149      0.1692
    102  C        -14.3600  136.1040   47.7510 C.2   149  ILE149      0.2591
    103  O        -15.3550  135.9230   47.0500 O.2   149  ILE149     -0.2718
    104  CB       -14.4620  136.0110   50.2770 C.3   149  ILE149      0.0266
    105  CG1      -14.5100  135.0390   51.4620 C.3   149  ILE149      0.0019
    106  CG2      -15.8020  136.7280   50.1220 C.3   149  ILE149      0.0020
    107  CD1      -14.7820  135.7000   52.8110 C.3   149  ILE149      0.0001
    108  N        -13.4530  137.0350   47.4710 N.am  150  VAL150     -0.1980
    109  CA       -13.6140  137.9000   46.3090 C.3   150  VAL150      0.1595
    110  C        -13.6690  137.1000   45.0020 C.2   150  VAL150      0.2287
    111  O        -14.5460  137.3310   44.1660 O.2   150  VAL150     -0.2864
    112  CB       -12.4790  138.9490   46.2350 C.3   150  VAL150      0.0276
    113  CG1      -12.6050  139.7750   44.9610 C.3   150  VAL150      0.0022
    114  CG2      -12.5400  139.8590   47.4640 C.3   150  VAL150      0.0022
    115  N        -16.9540  135.3370   44.6580 N.3   153  HIS153     -0.1226
    116  CA       -18.0120  136.2940   44.3300 C.3   153  HIS153      0.1752
    117  C        -18.0110  136.5350   42.8150 C.2   153  HIS153      0.2595
    118  O        -19.0630  136.5080   42.1730 O.2   153  HIS153     -0.2718
    119  CB       -17.7680  137.6180   45.0670 C.3   153  HIS153      0.0759
    120  CG       -18.7790  138.6870   44.7680 C.ar  153  HIS153      0.0818
    121  ND1      -19.6840  139.1400   45.7060 N.ar  153  HIS153     -0.2268
    122  CD2      -19.0000  139.4190   43.6490 C.ar  153  HIS153      0.1154
    123  CE1      -20.4170  140.1050   45.1780 C.ar  153  HIS153      0.1986
    124  NE2      -20.0220  140.2940   43.9310 N.ar  153  HIS153     -0.2212
    125  N        -16.8290  136.7560   42.2440 N.am  154  GLU154     -0.1979
    126  CA       -16.7290  137.0070   40.8110 C.3   154  GLU154      0.1602
    127  C        -17.1060  135.7880   39.9740 C.2   154  GLU154      0.2287
    128  O        -17.8510  135.9070   39.0000 O.2   154  GLU154     -0.2864
    129  CB       -15.3160  137.4600   40.4240 C.3   154  GLU154      0.0415
    130  CG       -14.8710  138.7900   41.0270 C.3   154  GLU154      0.1163
    131  CD       -15.9540  139.8620   40.9940 C.2   154  GLU154      0.3649
    132  OE1      -16.6720  139.9750   39.9770 O.co2 154  GLU154     -0.2457
    133  OE2      -16.0720  140.6050   41.9910 O.co2 154  GLU154     -0.2457
    134  N        -20.7560  135.2820   39.5050 N.3   157  HIS157     -0.1241
    135  CA       -21.3670  136.1000   38.4540 C.3   157  HIS157      0.1621
    136  C        -21.3680  135.3660   37.1160 C.2   157  HIS157      0.2264
    137  O        -22.2890  135.5240   36.3130 O.2   157  HIS157     -0.2867
    138  CB       -20.6180  137.4240   38.2780 C.3   157  HIS157      0.0745
    139  CG       -21.0030  138.4810   39.2630 C.ar  157  HIS157      0.0817
    140  ND1      -22.2990  138.9260   39.4100 N.ar  157  HIS157     -0.2268
    141  CD2      -20.2580  139.2020   40.1340 C.ar  157  HIS157      0.1154
    142  CE1      -22.3360  139.8760   40.3280 C.ar  157  HIS157      0.1986
    143  NE2      -21.1110  140.0620   40.7830 N.ar  157  HIS157     -0.2212
    144  N        -12.4880  142.5700   57.5780 N.3   184  GLU184     -0.1245
    145  CA       -12.5760  143.3610   56.3580 C.3   184  GLU184      0.1567
    146  C        -11.2240  144.0060   56.0640 C.2   184  GLU184      0.2260
    147  O        -10.8880  145.0470   56.6330 O.2   184  GLU184     -0.2867
    148  CB       -13.6440  144.4480   56.5100 C.3   184  GLU184      0.0388
    149  CG       -14.0530  145.1100   55.2030 C.3   184  GLU184      0.1160
    150  CD       -14.8680  144.1900   54.3090 C.2   184  GLU184      0.3649
    151  OE1      -15.2260  144.6100   53.1890 O.co2 184  GLU184     -0.2457
    152  OE2      -15.1540  143.0480   54.7280 O.co2 184  GLU184     -0.2457
@<TRIPOS>BOND
     1    44    45    2
     2    44    43    1
     3    42    43    1
     4    43    46    1
     5    46    47    1
     6   137   136    2
     7   136   135    1
     8    47    48    1
     9   138   135    1
    10   138   139    1
    11   135   134    1
    12    49    48    2
    13    48    50   am
    14   128   127    2
    15   139   140   ar
    16   139   141   ar
    17   140   142   ar
    18   127   126    1
    19   132   131   ar
    20   141   143   ar
    21   142   143   ar
    22   129   126    1
    23   129   130    1
    24    40    41    2
    25    40    39    1
    26    78    77    1
    27   126   125    1
    28    75    74    2
    29   131   130    1
    30   131   133   ar
    31    76    77    1
    32    76    73    1
    33    74    73    1
    34    39    38    1
    35    77    79    1
    36    73    72    1
    37    10    11    1
    38   118   117    2
    39   125   117   am
    40    38    33   am
    41    13    12    2
    42     1     2    1
    43   117   116    1
    44    34    33    2
    45    33    32    1
    46    14    11    1
    47    14    15    1
    48    11    12    1
    49    30    29    2
    50    12    21   am
    51   122   124   ar
    52   122   120   ar
    53     2     5    1
    54     2     3    1
    55    29    28    1
    56    29    31   am
    57     9     7   am
    58   124   123   ar
    59     5     6    1
    60     3     4    2
    61    28    27    1
    62    32    31    1
    63    32    35    1
    64    27    23   am
    65   111   110    2
    66     7     6    1
    67     7     8    2
    68   116   115    1
    69   116   119    1
    70    16    15    1
    71    16    17    1
    72    21    22    1
    73    19    18    1
    74   120   119    1
    75   120   121   ar
    76    22    23    1
    77    22    25    1
    78    23    24    2
    79   113   112    1
    80   110   109    1
    81   123   121   ar
    82    35    37    1
    83    35    36    1
    84    17    18    2
    85    18    20    1
    86    25    26    1
    87   112   109    1
    88   112   114    1
    89   109   108    1
    90    71    70    2
    91    70    69    1
    92   103   102    2
    93   108   102   am
    94   102   101    1
    95    66    65   ar
    96    69    68    1
    97   101   100    1
    98   101   104    1
    99    68    61   am
   100    65    67   ar
   101    65    64    1
   102    99    98    1
   103    91    90    2
   104    80    81    1
   105    63    64    1
   106    63    60    1
   107    97    98   ar
   108    97    95   ar
   109   106   104    1
   110    61    62    2
   111    61    60    1
   112   104   105    1
   113    98    96   ar
   114    90    89    1
   115    81    82    1
   116    81    84    1
   117    95    93   ar
   118    60    59    1
   119    87    85   am
   120    82    83    2
   121    96    94   ar
   122   105   107    1
   123    93    94   ar
   124    93    92    1
   125    85    84    1
   126    85    86    2
   127    89    92    1
   128    89    88    1
   129    57    56    1
   130   151   150   ar
   131    56    58    1
   132    56    55    1
   133   150   152   ar
   134   150   149    1
   135    55    52    1
   136   149   148    1
   137    51    52    1
   138    52    53    1
   139   146   145    1
   140   146   147    2
   141   145   148    1
   142   145   144    1
   143    54    53    2
