@<TRIPOS>MOLECULE
tmp/1q20A01.pdb
 199 194 0 0 0
SMALL
GASTEIGER

@<TRIPOS>ATOM
      1  N          5.9210    6.8220   34.7300 N.3     3  ILE3       -0.1245
      2  CA         6.5080    7.4700   33.5570 C.3     3  ILE3        0.1561
      3  C          5.9870    6.8510   32.2520 C.2     3  ILE3        0.2260
      4  O          5.9160    7.5200   31.2170 O.2     3  ILE3       -0.2867
      5  CB         8.0550    7.3620   33.5770 C.3     3  ILE3        0.0252
      6  CG1        8.6390    7.9300   32.2860 C.3     3  ILE3        0.0019
      7  CG2        8.4770    5.9160   33.7450 C.3     3  ILE3        0.0019
      8  CD1       10.1310    7.7830   32.1960 C.3     3  ILE3        0.0001
      9  N          2.5300    8.4480   31.5830 N.3     6  ILE6       -0.1245
     10  CA         2.7230    9.8210   31.1400 C.3     6  ILE6        0.1561
     11  C          3.1860    9.8640   29.6890 C.2     6  ILE6        0.2260
     12  O          2.6150   10.5870   28.8690 O.2     6  ILE6       -0.2867
     13  CB         3.7590   10.5560   32.0270 C.3     6  ILE6        0.0252
     14  CG1        3.1650   10.7960   33.4160 C.3     6  ILE6        0.0019
     15  CG2        4.1630   11.8780   31.3850 C.3     6  ILE6        0.0019
     16  CD1        4.0750   11.5570   34.3600 C.3     6  ILE6        0.0001
     17  N          5.7610   16.9870   29.6330 N.3    26  LEU26      -0.1231
     18  CA         6.9890   16.8280   30.4020 C.3    26  LEU26       0.1693
     19  C          7.3430   18.1160   31.1530 C.2    26  LEU26       0.2592
     20  O          8.3120   18.1620   31.9150 O.2    26  LEU26      -0.2718
     21  CB         8.1370   16.4210   29.4740 C.3    26  LEU26       0.0284
     22  CG         7.9260   15.1030   28.7140 C.3    26  LEU26       0.0019
     23  CD1        9.1190   14.8270   27.8120 C.3    26  LEU26       0.0001
     24  CD2        7.7270   13.9610   29.6970 C.3    26  LEU26       0.0001
     25  N          6.5440   19.1580   30.9360 N.am   27  TYR27      -0.1976
     26  CA         6.7540   20.4560   31.5700 C.3    27  TYR27       0.1639
     27  C          5.4000   21.0720   31.9010 C.2    27  TYR27       0.2290
     28  O          4.3920   20.7480   31.2720 O.2    27  TYR27      -0.2864
     29  CB         7.4870   21.4040   30.6170 C.3    27  TYR27       0.0560
     30  CG         8.7870   20.8830   30.0400 C.ar   27  TYR27      -0.0198
     31  CD1       10.0010   21.1200   30.6840 C.ar   27  TYR27      -0.0009
     32  CD2        8.8040   20.1820   28.8290 C.ar   27  TYR27      -0.0009
     33  CE1       11.2060   20.6790   30.1380 C.ar   27  TYR27       0.0417
     34  CE2       10.0050   19.7350   28.2700 C.ar   27  TYR27       0.0417
     35  CZ        11.1990   19.9890   28.9320 C.ar   27  TYR27       0.1957
     36  OH        12.3880   19.5630   28.3960 O.3    27  TYR27      -0.2866
     37  N         18.6310   23.1290   23.5650 N.3    52  PRO52      -0.2102
     38  CA        18.4590   21.7240   23.1570 C.3    52  PRO52       0.1504
     39  C         19.2890   21.2650   21.9500 C.2    52  PRO52       0.2575
     40  O         19.4480   22.0020   20.9690 O.2    52  PRO52      -0.2718
     41  CB        16.9580   21.6250   22.9010 C.3    52  PRO52       0.0282
     42  CG        16.4020   22.5910   23.9450 C.3    52  PRO52       0.0208
     43  CD        17.3280   23.7760   23.7940 C.3    52  PRO52       0.0893
     44  N         19.8220   20.0460   22.0540 N.am   53  LYS53      -0.1980
     45  CA        20.6380   19.3940   21.0180 C.3    53  LYS53       0.1596
     46  C         22.0280   19.9670   20.8140 C.2    53  LYS53       0.2287
     47  O         22.5950   19.8360   19.7260 O.2    53  LYS53      -0.2864
     48  CB        19.9220   19.3800   19.6600 C.3    53  LYS53       0.0298
     49  CG        18.4240   19.1380   19.7250 C.3    53  LYS53       0.0038
     50  CD        18.0470   18.0690   20.7570 C.3    53  LYS53       0.0206
     51  CE        18.6330   16.6930   20.4250 C.3    53  LYS53       0.1093
     52  NZ        18.2260   15.6850   21.4570 N.3    53  LYS53      -0.1314
     53  N         24.2930   18.3070   25.4280 N.3    56  THR56      -0.1218
     54  CA        24.0720   18.2850   26.8720 C.3    56  THR56       0.1862
     55  C         24.4920   16.9310   27.4470 C.2    56  THR56       0.2287
     56  O         25.2180   16.8530   28.4490 O.2    56  THR56      -0.2866
     57  CB        22.5770   18.4920   27.1940 C.3    56  THR56       0.1770
     58  OG1       22.0260   19.4920   26.3240 O.3    56  THR56      -0.2211
     59  CG2       22.3970   18.9140   28.6460 C.3    56  THR56       0.0375
     60  N         19.4800   10.6650   33.3490 N.3    81  TRP81      -0.1241
     61  CA        18.5370   11.6890   33.7940 C.3    81  TRP81       0.1605
     62  C         18.3610   11.7100   35.3070 C.2    81  TRP81       0.2264
     63  O         17.7230   12.6100   35.8630 O.2    81  TRP81      -0.2867
     64  CB        17.1830   11.5020   33.1080 C.3    81  TRP81       0.0550
     65  CG        16.5210   10.2040   33.4160 C.ar   81  TRP81       0.0003
     66  CD1       15.7280    9.9170   34.4920 C.ar   81  TRP81       0.0946
     67  CD2       16.5890    9.0070   32.6340 C.ar   81  TRP81       0.0152
     68  NE1       15.2930    8.6120   34.4230 N.ar   81  TRP81      -0.2442
     69  CE2       15.8090    8.0320   33.2920 C.ar   81  TRP81       0.0810
     70  CE3       17.2360    8.6620   31.4400 C.ar   81  TRP81       0.0012
     71  CZ2       15.6550    6.7340   32.7930 C.ar   81  TRP81       0.0191
     72  CZ3       17.0840    7.3710   30.9450 C.ar   81  TRP81       0.0001
     73  CH2       16.2990    6.4250   31.6220 C.ar   81  TRP81       0.0015
     74  N         16.7820   17.4250   35.5460 N.3    86  TRP86      -0.1241
     75  CA        16.4260   18.6830   34.9160 C.3    86  TRP86       0.1605
     76  C         15.6710   19.5880   35.8790 C.2    86  TRP86       0.2264
     77  O         14.8030   19.1350   36.6230 O.2    86  TRP86      -0.2867
     78  CB        15.5950   18.4120   33.6600 C.3    86  TRP86       0.0550
     79  CG        16.3620   17.5910   32.6680 C.ar   86  TRP86       0.0003
     80  CD1       16.4740   16.2260   32.6360 C.ar   86  TRP86       0.0946
     81  CD2       17.2160   18.0870   31.6290 C.ar   86  TRP86       0.0152
     82  NE1       17.3470   15.8450   31.6480 N.ar   86  TRP86      -0.2442
     83  CE2       17.8180   16.9650   31.0130 C.ar   86  TRP86       0.0810
     84  CE3       17.5350   19.3700   31.1620 C.ar   86  TRP86       0.0012
     85  CZ2       18.7220   17.0870   29.9500 C.ar   86  TRP86       0.0191
     86  CZ3       18.4380   19.4930   30.1030 C.ar   86  TRP86       0.0001
     87  CH2       19.0190   18.3550   29.5100 C.ar   86  TRP86       0.0015
     88  N         11.5840   20.4010   34.4010 N.3    89  THR89      -0.1203
     89  CA        10.6290   19.3220   34.1340 C.3    89  THR89       0.1994
     90  C          9.6680   19.0420   35.2970 C.2    89  THR89       0.2618
     91  O          9.9590   19.3820   36.4480 O.2    89  THR89      -0.2717
     92  CB        11.3690   18.0280   33.7750 C.3    89  THR89       0.1784
     93  OG1       12.3360   17.7410   34.7860 O.3    89  THR89      -0.2211
     94  CG2       12.0920   18.1790   32.4510 C.3    89  THR89       0.0376
     95  N          8.5310   18.4180   34.9900 N.am   90  ILE90      -0.1965
     96  CA         7.5280   18.0830   36.0050 C.3    90  ILE90       0.1727
     97  C          8.1600   17.4370   37.2330 C.2    90  ILE90       0.2616
     98  O          7.8230   17.7570   38.3730 O.2    90  ILE90      -0.2715
     99  CB         6.4760   17.1000   35.4700 C.3    90  ILE90       0.0290
    100  CG1        5.7600   17.6990   34.2600 C.3    90  ILE90       0.0022
    101  CG2        5.4610   16.7970   36.5670 C.3    90  ILE90       0.0023
    102  CD1        5.0120   18.9650   34.5700 C.3    90  ILE90       0.0001
    103  N          9.0720   16.5120   36.9910 N.am   91  VAL91      -0.1977
    104  CA         9.7680   15.8350   38.0790 C.3    91  VAL91       0.1596
    105  C         11.1930   16.3730   38.0150 C.2    91  VAL91       0.2287
    106  O         12.0970   15.7190   37.5030 O.2    91  VAL91      -0.2864
    107  CB         9.7680   14.3000   37.8790 C.3    91  VAL91       0.0276
    108  CG1       10.5420   13.6210   39.0010 C.3    91  VAL91       0.0022
    109  CG2        8.3390   13.7900   37.8370 C.3    91  VAL91       0.0022
    110  N         17.5700   23.7320   30.1770 N.3   108  HIS108     -0.1241
    111  CA        17.5380   24.3000   28.8310 C.3   108  HIS108      0.1621
    112  C         16.9140   25.7000   28.9090 C.2   108  HIS108      0.2264
    113  O         16.6810   26.3430   27.8900 O.2   108  HIS108     -0.2867
    114  CB        16.6880   23.4390   27.8870 C.3   108  HIS108      0.0745
    115  CG        17.3320   22.1500   27.4860 C.ar  108  HIS108      0.0817
    116  ND1       18.6570   22.0630   27.1160 N.ar  108  HIS108     -0.2268
    117  CD2       16.8220   20.9020   27.3530 C.ar  108  HIS108      0.1154
    118  CE1       18.9370   20.8180   26.7730 C.ar  108  HIS108      0.1986
    119  NE2       17.8410   20.0940   26.9070 N.ar  108  HIS108     -0.2212
    120  N         15.5900   14.2660   15.8690 N.3   142  TYR142     -0.1241
    121  CA        15.1440   13.9420   17.2110 C.3   142  TYR142      0.1605
    122  C         13.6350   14.1370   17.3820 C.2   142  TYR142      0.2264
    123  O         12.9730   13.3490   18.0540 O.2   142  TYR142     -0.2867
    124  CB        15.8950   14.8010   18.2220 C.3   142  TYR142      0.0534
    125  CG        15.3910   14.6930   19.6500 C.ar  142  TYR142     -0.0201
    126  CD1       15.5900   13.5300   20.4020 C.ar  142  TYR142     -0.0009
    127  CD2       14.7410   15.7680   20.2590 C.ar  142  TYR142     -0.0009
    128  CE1       15.1590   13.4450   21.7320 C.ar  142  TYR142      0.0417
    129  CE2       14.3100   15.6950   21.5780 C.ar  142  TYR142      0.0417
    130  CZ        14.5220   14.5340   22.3100 C.ar  142  TYR142      0.1957
    131  OH        14.0990   14.4770   23.6160 O.3   142  TYR142     -0.2866
    132  N          7.4170   13.9530   23.1680 N.3   148  GLN148     -0.1245
    133  CA         6.9610   15.2660   23.6190 C.3   148  GLN148      0.1566
    134  C          6.9450   16.3180   22.5120 C.2   148  GLN148      0.2260
    135  O          6.2290   17.3100   22.6180 O.2   148  GLN148     -0.2867
    136  CB         7.8420   15.7770   24.7690 C.3   148  GLN148      0.0367
    137  CG         9.1990   16.3310   24.3270 C.3   148  GLN148      0.0905
    138  CD        10.2710   15.2700   24.1950 C.2   148  GLN148      0.2608
    139  OE1        9.9920   14.1300   23.8090 O.2   148  GLN148     -0.2717
    140  NE2       11.5150   15.6400   24.5060 N.am  148  GLN148     -0.0878
    141  N         10.7290   24.5520   20.7860 N.3   168  GLN168     -0.1231
    142  CA        10.8670   24.4330   22.2290 C.3   168  GLN168      0.1698
    143  C         12.0140   25.2930   22.7540 C.2   168  GLN168      0.2592
    144  O         13.1020   25.3270   22.1760 O.2   168  GLN168     -0.2718
    145  CB        11.0950   22.9660   22.6250 C.3   168  GLN168      0.0381
    146  CG        12.4420   22.4140   22.1970 C.3   168  GLN168      0.0905
    147  CD        12.7560   21.0790   22.8440 C.2   168  GLN168      0.2608
    148  OE1       12.0440   20.6260   23.7480 O.2   168  GLN168     -0.2717
    149  NE2       13.8330   20.4490   22.3970 N.am  168  GLN168     -0.0878
    150  N         11.7530   25.9890   23.8550 N.am  169  PHE169     -0.1976
    151  CA        12.7470   26.8440   24.4870 C.3   169  PHE169      0.1639
    152  C         13.1000   28.1070   23.7050 C.2   169  PHE169      0.2290
    153  O         14.0840   28.7710   24.0040 O.2   169  PHE169     -0.2864
    154  CB        14.0010   26.0240   24.8180 C.3   169  PHE169      0.0560
    155  CG        13.7670   25.0080   25.9050 C.ar  169  PHE169     -0.0200
    156  CD1       13.6380   25.4090   27.2280 C.ar  169  PHE169     -0.0042
    157  CD2       13.5970   23.6580   25.5950 C.ar  169  PHE169     -0.0042
    158  CE1       13.3380   24.4870   28.2320 C.ar  169  PHE169     -0.0003
    159  CE2       13.2970   22.7280   26.5950 C.ar  169  PHE169     -0.0003
    160  CZ        13.1660   23.1400   27.9130 C.ar  169  PHE169     -0.0000
    161  N         19.7930    6.4040   26.5190 N.3   240  TYR240     -0.1241
    162  CA        18.3330    6.5330   26.4850 C.3   240  TYR240      0.1605
    163  C         17.4730    5.3850   25.9650 C.2   240  TYR240      0.2264
    164  O         16.2690    5.5540   25.7780 O.2   240  TYR240     -0.2867
    165  CB        17.9770    7.8050   25.7200 C.3   240  TYR240      0.0534
    166  CG        18.3920    9.0390   26.4650 C.ar  240  TYR240     -0.0201
    167  CD1       17.7690    9.3800   27.6580 C.ar  240  TYR240     -0.0009
    168  CD2       19.4180    9.8520   25.9990 C.ar  240  TYR240     -0.0009
    169  CE1       18.1570   10.5010   28.3740 C.ar  240  TYR240      0.0417
    170  CE2       19.8120   10.9890   26.7050 C.ar  240  TYR240      0.0417
    171  CZ        19.1750   11.3030   27.8930 C.ar  240  TYR240      0.1957
    172  OH        19.5350   12.4130   28.6050 O.3   240  TYR240     -0.2866
    173  N         14.0740    4.3120   27.9940 N.3   243  LEU243     -0.1245
    174  CA        12.8460    5.0950   28.0150 C.3   243  LEU243      0.1561
    175  C         11.7250    4.3880   27.2680 C.2   243  LEU243      0.2260
    176  O         11.9760    3.6250   26.3430 O.2   243  LEU243     -0.2867
    177  CB        13.0670    6.4580   27.3530 C.3   243  LEU243      0.0270
    178  CG        14.1280    7.4020   27.9060 C.3   243  LEU243      0.0019
    179  CD1       14.1790    8.6480   27.0330 C.3   243  LEU243      0.0001
    180  CD2       13.8040    7.7570   29.3480 C.3   243  LEU243      0.0001
    181  N          7.8520    7.6110   24.4680 N.3   247  LEU247     -0.1245
    182  CA         8.6150    8.8120   24.7950 C.3   247  LEU247      0.1561
    183  C          9.7460    8.9900   23.7860 C.2   247  LEU247      0.2260
    184  O         10.0240   10.1000   23.3290 O.2   247  LEU247     -0.2867
    185  CB         9.1830    8.7100   26.2130 C.3   247  LEU247      0.0270
    186  CG        10.0040    9.9030   26.7110 C.3   247  LEU247      0.0019
    187  CD1        9.2080   11.1920   26.5550 C.3   247  LEU247      0.0001
    188  CD2       10.3830    9.6770   28.1680 C.3   247  LEU247      0.0001
    189  N         18.9060    8.5340   20.2130 N.3   255  PHE255     -0.1241
    190  CA        19.1920    9.8530   20.7640 C.3   255  PHE255      0.1605
    191  C         20.6020   10.2470   20.3020 C.2   255  PHE255      0.2264
    192  O         20.8270   11.3740   19.8490 O.2   255  PHE255     -0.2867
    193  CB        19.1300    9.8030   22.2930 C.3   255  PHE255      0.0534
    194  CG        19.1010   11.1660   22.9550 C.ar  255  PHE255     -0.0203
    195  CD1       17.9130   11.6770   23.4730 C.ar  255  PHE255     -0.0042
    196  CD2       20.2620   11.9170   23.0890 C.ar  255  PHE255     -0.0042
    197  CE1       17.8860   12.9140   24.1190 C.ar  255  PHE255     -0.0003
    198  CE2       20.2440   13.1560   23.7320 C.ar  255  PHE255     -0.0003
    199  CZ        19.0570   13.6550   24.2490 C.ar  255  PHE255     -0.0000
@<TRIPOS>BOND
     1   120   121    1
     2   121   122    1
     3   121   124    1
     4   122   123    2
     5   124   125    1
     6   125   127   ar
     7   125   126   ar
     8    48    49    1
     9    48    45    1
    10    49    50    1
    11    47    46    2
    12   192   191    2
    13   189   190    1
    14   127   129   ar
    15   191   190    1
    16   126   128   ar
    17    51    50    1
    18    51    52    1
    19   190   193    1
    20   141   142    1
    21    46    45    1
    22    40    39    2
    23    45    44    1
    24   129   130   ar
    25   128   130   ar
    26    39    44   am
    27    39    38    1
    28   144   143    2
    29   146   145    1
    30   146   147    1
    31   142   145    1
    32   142   143    1
    33   193   194    1
    34   130   131    1
    35   149   147   am
    36   134   135    2
    37   134   133    1
    38   143   150   am
    39   147   148    2
    40    41    38    1
    41    41    42    1
    42   194   196   ar
    43   194   195   ar
    44   196   198   ar
    45    38    37    1
    46   132   133    1
    47   184   183    2
    48   195   197   ar
    49    37    43    1
    50   133   136    1
    51   152   153    2
    52   152   151    1
    53   198   199   ar
    54   183   182    1
    55    43    42    1
    56   139   138    2
    57   150   151    1
    58   197   199   ar
    59   138   137    1
    60   138   140   am
    61   137   136    1
    62   181   182    1
    63   151   154    1
    64   182   185    1
    65   154   155    1
    66    53    54    1
    67   157   155   ar
    68   157   159   ar
    69   165   166    1
    70   165   162    1
    71   164   163    2
    72   155   156   ar
    73   163   162    1
    74   168   166   ar
    75   168   170   ar
    76   185   186    1
    77    58    57    1
    78   176   175    2
    79   166   167   ar
    80   162   161    1
    81   187   186    1
    82   159   160   ar
    83   170   171   ar
    84   186   188    1
    85   118   119   ar
    86   118   116   ar
    87    54    57    1
    88    54    55    1
    89   119   117   ar
    90   179   178    1
    91   116   115   ar
    92    57    59    1
    93   156   158   ar
    94   175   174    1
    95   177   178    1
    96   177   174    1
    97   117   115   ar
    98    55    56    2
    99   115   114    1
   100   167   169   ar
   101    23    22    1
   102   114   111    1
   103   113   112    2
   104   171   169   ar
   105   171   172    1
   106   178   180    1
   107   160   158   ar
   108   173   174    1
   109    34    32   ar
   110    34    35   ar
   111    36    35    1
   112    22    21    1
   113    22    24    1
   114    32    30   ar
   115   111   112    1
   116   111   110    1
   117    12    11    2
   118    35    33   ar
   119    21    18    1
   120    87    85   ar
   121    87    86   ar
   122    17    18    1
   123    11    10    1
   124    85    83   ar
   125    30    29    1
   126    30    31   ar
   127    86    84   ar
   128    33    31   ar
   129    18    19    1
   130    29    26    1
   131    25    19   am
   132    25    26    1
   133    72    70   ar
   134    72    73   ar
   135    83    81   ar
   136    83    82   ar
   137    10     9    1
   138    10    13    1
   139    19    20    2
   140    84    81   ar
   141     4     3    2
   142    28    27    2
   143    15    13    1
   144    70    67   ar
   145    26    27    1
   146    73    71   ar
   147    81    79   ar
   148    82    80   ar
   149    13    14    1
   150     8     6    1
   151     3     2    1
   152     6     5    1
   153    94    92    1
   154    67    69   ar
   155    67    65   ar
   156    80    79   ar
   157    79    78    1
   158    71    69   ar
   159    64    65    1
   160    64    61    1
   161    69    68   ar
   162    60    61    1
   163    14    16    1
   164    65    66   ar
   165     2     5    1
   166     2     1    1
   167     5     7    1
   168    78    75    1
   169    92    89    1
   170    92    93    1
   171    61    62    1
   172    89    88    1
   173    89    90    1
   174   100   102    1
   175   100    99    1
   176    68    66   ar
   177    75    74    1
   178    75    76    1
   179    95    90   am
   180    95    96    1
   181    90    91    2
   182    62    63    2
   183    99    96    1
   184    99   101    1
   185    76    77    2
   186    96    97    1
   187   103    97   am
   188   103   104    1
   189    97    98    2
   190   106   105    2
   191   109   107    1
   192   107   104    1
   193   107   108    1
   194   105   104    1
