@<TRIPOS>MOLECULE
tmp/1q20A00.pdb
 193 188 0 0 0
SMALL
GASTEIGER

@<TRIPOS>ATOM
      1  N         18.6310   23.1290   23.5650 N.3    52  PRO52      -0.2102
      2  CA        18.4590   21.7240   23.1570 C.3    52  PRO52       0.1504
      3  C         19.2890   21.2650   21.9500 C.2    52  PRO52       0.2576
      4  O         19.4480   22.0020   20.9690 O.2    52  PRO52      -0.2718
      5  CB        16.9580   21.6250   22.9010 C.3    52  PRO52       0.0282
      6  CG        16.4020   22.5910   23.9450 C.3    52  PRO52       0.0208
      7  CD        17.3280   23.7760   23.7940 C.3    52  PRO52       0.0893
      8  N         19.8220   20.0460   22.0540 N.am   53  LYS53      -0.1966
      9  CA        20.6380   19.3940   21.0180 C.3    53  LYS53       0.1728
     10  C         22.0280   19.9670   20.8140 C.2    53  LYS53       0.2617
     11  O         22.5950   19.8360   19.7260 O.2    53  LYS53      -0.2715
     12  CB        19.9220   19.3800   19.6600 C.3    53  LYS53       0.0311
     13  CG        18.4240   19.1380   19.7250 C.3    53  LYS53       0.0038
     14  CD        18.0470   18.0690   20.7570 C.3    53  LYS53       0.0206
     15  CE        18.6330   16.6930   20.4250 C.3    53  LYS53       0.1093
     16  NZ        18.2260   15.6850   21.4570 N.3    53  LYS53      -0.1314
     17  N         22.5870   20.5900   21.8460 N.am   54  SER54      -0.1936
     18  CA        23.9300   21.1670   21.7300 C.3    54  SER54       0.2055
     19  C         25.0110   20.2550   22.3070 C.2    54  SER54       0.2644
     20  O         26.1980   20.6070   22.3060 O.2    54  SER54      -0.2714
     21  CB        23.9840   22.5340   22.4260 C.3    54  SER54       0.2130
     22  OG        22.9740   23.3890   21.9200 O.3    54  SER54      -0.2179
     23  N         24.6010   19.0810   22.7880 N.am   55  GLY55      -0.1939
     24  CA        25.5390   18.1290   23.3630 C.3    55  GLY55       0.2014
     25  C         25.4750   18.0660   24.8800 C.2    55  GLY55       0.2640
     26  O         26.4760   17.8060   25.5410 O.2    55  GLY55      -0.2714
     27  N         24.2930   18.3070   25.4280 N.am   56  THR56      -0.1936
     28  CA        24.0720   18.2850   26.8720 C.3    56  THR56       0.2028
     29  C         24.4920   16.9310   27.4470 C.2    56  THR56       0.2643
     30  O         25.2180   16.8530   28.4490 O.2    56  THR56      -0.2714
     31  CB        22.5770   18.4920   27.1940 C.3    56  THR56       0.1808
     32  OG1       22.0260   19.4920   26.3240 O.3    56  THR56      -0.2208
     33  CG2       22.3970   18.9140   28.6460 C.3    56  THR56       0.0379
     34  N         24.0160   15.8710   26.7980 N.am   57  THR57      -0.1936
     35  CA        24.3100   14.5070   27.2080 C.3    57  THR57       0.2028
     36  C         25.8090   14.3300   27.3540 C.2    57  THR57       0.2642
     37  O         26.2810   13.7250   28.3120 O.2    57  THR57      -0.2714
     38  CB        23.8050   13.4860   26.1680 C.3    57  THR57       0.1808
     39  OG1       22.4080   13.6980   25.9220 O.3    57  THR57      -0.2208
     40  CG2       24.0110   12.0580   26.6790 C.3    57  THR57       0.0379
     41  N         26.5610   14.8630   26.4030 N.am   58  TRP58      -0.1973
     42  CA        28.0060   14.7380   26.4430 C.3    58  TRP58       0.1640
     43  C         28.5590   15.3510   27.7330 C.2    58  TRP58       0.2290
     44  O         29.2120   14.6680   28.5310 O.2    58  TRP58      -0.2864
     45  CB        28.6040   15.4370   25.2270 C.3    58  TRP58       0.0576
     46  CG        29.9900   14.9980   24.8640 C.ar   58  TRP58       0.0006
     47  CD1       30.7930   14.1310   25.5550 C.ar   58  TRP58       0.0946
     48  CD2       30.7160   15.3660   23.6840 C.ar   58  TRP58       0.0152
     49  NE1       31.9750   13.9290   24.8700 N.ar   58  TRP58      -0.2442
     50  CE2       31.9520   14.6760   23.7200 C.ar   58  TRP58       0.0810
     51  CE3       30.4420   16.2130   22.5960 C.ar   58  TRP58       0.0012
     52  CZ2       32.9140   14.8050   22.7070 C.ar   58  TRP58       0.0191
     53  CZ3       31.4020   16.3450   21.5850 C.ar   58  TRP58       0.0001
     54  CH2       32.6240   15.6400   21.6520 C.ar   58  TRP58       0.0015
     55  N         17.5700   23.7320   30.1770 N.3   108  HIS108     -0.1241
     56  CA        17.5380   24.3000   28.8310 C.3   108  HIS108      0.1621
     57  C         16.9140   25.7000   28.9090 C.2   108  HIS108      0.2264
     58  O         16.6810   26.3430   27.8900 O.2   108  HIS108     -0.2867
     59  CB        16.6880   23.4390   27.8870 C.3   108  HIS108      0.0745
     60  CG        17.3320   22.1500   27.4860 C.ar  108  HIS108      0.0817
     61  ND1       18.6570   22.0630   27.1160 N.ar  108  HIS108     -0.2268
     62  CD2       16.8220   20.9020   27.3530 C.ar  108  HIS108      0.1154
     63  CE1       18.9370   20.8180   26.7730 C.ar  108  HIS108      0.1986
     64  NE2       17.8410   20.0940   26.9070 N.ar  108  HIS108     -0.2212
     65  N         26.6700   25.0670   20.4580 N.3   130  ARG130     -0.1245
     66  CA        27.0220   24.2560   19.2880 C.3   130  ARG130      0.1563
     67  C         26.6250   25.0130   18.0230 C.2   130  ARG130      0.2260
     68  O         25.7630   25.8750   18.0700 O.2   130  ARG130     -0.2867
     69  CB        26.2670   22.9170   19.3330 C.3   130  ARG130      0.0307
     70  CG        26.6440   21.9120   18.2350 C.3   130  ARG130      0.0489
     71  CD        25.7660   20.6640   18.2900 C.3   130  ARG130      0.2205
     72  NE        26.2620   19.6140   17.4030 N.pl3 130  ARG130     -0.0865
     73  CZ        25.6410   18.4560   17.1820 C.cat 130  ARG130      0.5346
     74  NH1       24.4870   18.1920   17.7810 N.pl3 130  ARG130      0.1354
     75  NH2       26.1790   17.5570   16.3680 N.pl3 130  ARG130      0.1354
     76  N         24.0570   22.6490   12.9540 N.3   134  ASP134     -0.1239
     77  CA        24.0620   21.2500   13.3600 C.3   134  ASP134      0.1674
     78  C         22.9820   21.0490   14.4090 C.2   134  ASP134      0.2266
     79  O         22.4610   19.9540   14.5780 O.2   134  ASP134     -0.2867
     80  CB        25.4180   20.8470   13.9460 C.3   134  ASP134      0.1410
     81  CG        26.4750   20.6210   12.8750 C.2   134  ASP134      0.3668
     82  OD1       26.1150   20.3120   11.7240 O.co2 134  ASP134     -0.2456
     83  OD2       27.6730   20.7330   13.1900 O.co2 134  ASP134     -0.2456
     84  N         20.0790   18.1190   14.1600 N.3   138  SER138     -0.1217
     85  CA        19.9250   17.1950   15.2810 C.3   138  SER138      0.1889
     86  C         18.5180   17.2650   15.8480 C.2   138  SER138      0.2288
     87  O         17.9110   16.2510   16.1800 O.2   138  SER138     -0.2866
     88  CB        20.9350   17.5340   16.3770 C.3   138  SER138      0.2089
     89  OG        20.7080   16.7600   17.5400 O.3   138  SER138     -0.2183
     90  N         30.5470   22.5330   21.7410 N.3   193  TYR193     -0.1241
     91  CA        30.5150   21.1730   21.2280 C.3   193  TYR193      0.1605
     92  C         31.7290   20.9800   20.3170 C.2   193  TYR193      0.2264
     93  O         32.3550   19.9140   20.3070 O.2   193  TYR193     -0.2867
     94  CB        29.2280   20.9760   20.4270 C.3   193  TYR193      0.0534
     95  CG        29.0500   19.5980   19.8310 C.ar  193  TYR193     -0.0201
     96  CD1       28.4580   18.5730   20.5580 C.ar  193  TYR193     -0.0009
     97  CD2       29.4820   19.3210   18.5320 C.ar  193  TYR193     -0.0009
     98  CE1       28.2980   17.3020   20.0080 C.ar  193  TYR193      0.0417
     99  CE2       29.3320   18.0590   17.9740 C.ar  193  TYR193      0.0417
    100  CZ        28.7390   17.0530   18.7210 C.ar  193  TYR193      0.1957
    101  OH        28.6070   15.7970   18.1880 O.3   193  TYR193     -0.2866
    102  N         35.0140   18.3140   20.4810 N.3   197  GLN197     -0.1245
    103  CA        35.2990   17.4790   19.3220 C.3   197  GLN197      0.1566
    104  C         36.7490   17.6440   18.8690 C.2   197  GLN197      0.2260
    105  O         37.3790   16.6810   18.4210 O.2   197  GLN197     -0.2867
    106  CB        34.3560   17.8280   18.1670 C.3   197  GLN197      0.0367
    107  CG        32.9490   17.2820   18.3380 C.3   197  GLN197      0.0905
    108  CD        32.8160   15.8460   17.8440 C.2   197  GLN197      0.2608
    109  OE1       33.7970   15.0980   17.7990 O.2   197  GLN197     -0.2717
    110  NE2       31.6000   15.4540   17.4850 N.am  197  GLN197     -0.0878
    111  N         33.7010    9.0800   27.7640 N.3   227  SER227     -0.1217
    112  CA        32.9430   10.2300   27.2500 C.3   227  SER227      0.1889
    113  C         32.8220   10.2110   25.7370 C.2   227  SER227      0.2288
    114  O         32.0640   10.9850   25.1620 O.2   227  SER227     -0.2866
    115  CB        33.6240   11.5490   27.6330 C.3   227  SER227      0.2089
    116  OG        33.5050   11.8170   29.0080 O.3   227  SER227     -0.2183
    117  N         31.8820    9.3130   21.9390 N.3   229  PHE229     -0.1241
    118  CA        30.5980    8.9970   21.3350 C.3   229  PHE229      0.1605
    119  C         30.3260    7.4870   21.3030 C.2   229  PHE229      0.2264
    120  O         29.2630    7.0360   21.7460 O.2   229  PHE229     -0.2867
    121  CB        30.5290    9.5650   19.9180 C.3   229  PHE229      0.0534
    122  CG        29.2130    9.3270   19.2450 C.ar  229  PHE229     -0.0203
    123  CD1       28.0940   10.0720   19.5930 C.ar  229  PHE229     -0.0042
    124  CD2       29.0780    8.3240   18.2870 C.ar  229  PHE229     -0.0042
    125  CE1       26.8580    9.8240   19.0030 C.ar  229  PHE229     -0.0003
    126  CE2       27.8470    8.0670   17.6920 C.ar  229  PHE229     -0.0003
    127  CZ        26.7350    8.8190   18.0500 C.ar  229  PHE229     -0.0000
    128  N         29.6520    6.0460   24.8230 N.3   232  MET232     -0.1245
    129  CA        28.3610    6.4880   25.3390 C.3   232  MET232      0.1570
    130  C         27.1880    5.8840   24.5790 C.2   232  MET232      0.2261
    131  O         26.1300    5.6330   25.1470 O.2   232  MET232     -0.2867
    132  CB        28.2720    8.0210   25.2990 C.3   232  MET232      0.0387
    133  CG        29.1170    8.7320   26.3530 C.3   232  MET232      0.0595
    134  SD        28.9050   10.5370   26.3330 S.3   232  MET232     -0.1393
    135  CE        27.1880   10.6780   26.8120 C.3   232  MET232      0.0692
    136  N         18.9060    8.5340   20.2130 N.3   255  PHE255     -0.1227
    137  CA        19.1920    9.8530   20.7640 C.3   255  PHE255      0.1736
    138  C         20.6020   10.2470   20.3020 C.2   255  PHE255      0.2595
    139  O         20.8270   11.3740   19.8490 O.2   255  PHE255     -0.2718
    140  CB        19.1300    9.8030   22.2930 C.3   255  PHE255      0.0547
    141  CG        19.1010   11.1660   22.9550 C.ar  255  PHE255     -0.0202
    142  CD1       17.9130   11.6770   23.4730 C.ar  255  PHE255     -0.0042
    143  CD2       20.2620   11.9170   23.0890 C.ar  255  PHE255     -0.0042
    144  CE1       17.8860   12.9140   24.1190 C.ar  255  PHE255     -0.0003
    145  CE2       20.2440   13.1560   23.7320 C.ar  255  PHE255     -0.0003
    146  CZ        19.0570   13.6550   24.2490 C.ar  255  PHE255     -0.0000
    147  N         21.5530    9.3240   20.4310 N.am  256  LEU256     -0.1966
    148  CA        22.9110    9.5880   19.9730 C.3   256  LEU256      0.1728
    149  C         22.9350    9.1410   18.5190 C.2   256  LEU256      0.2616
    150  O         23.3410    8.0220   18.1950 O.2   256  LEU256     -0.2715
    151  CB        23.9410    8.8060   20.7870 C.3   256  LEU256      0.0311
    152  CG        23.9940    9.0690   22.2920 C.3   256  LEU256      0.0022
    153  CD1       25.2710    8.4550   22.8550 C.3   256  LEU256      0.0001
    154  CD2       23.9700   10.5510   22.5730 C.3   256  LEU256      0.0001
    155  N         22.4740   10.0500   17.6640 N.am  257  ARG257     -0.1963
    156  CA        22.3450    9.8620   16.2220 C.3   257  ARG257      0.1729
    157  C         23.6570    9.7080   15.4400 C.2   257  ARG257      0.2616
    158  O         23.9360    8.6240   14.9370 O.2   257  ARG257     -0.2715
    159  CB        21.5210   11.0260   15.6700 C.3   257  ARG257      0.0348
    160  CG        21.0390   10.8800   14.2460 C.3   257  ARG257      0.0492
    161  CD        20.2690   12.1280   13.8740 C.3   257  ARG257      0.2205
    162  NE        21.1270   13.3070   13.8890 N.pl3 257  ARG257     -0.0865
    163  CZ        21.9060   13.6680   12.8760 C.cat 257  ARG257      0.5346
    164  NH1       21.9240   12.9360   11.7670 N.pl3 257  ARG257      0.1354
    165  NH2       22.6720   14.7520   12.9690 N.pl3 257  ARG257      0.1354
    166  N         24.4460   10.7780   15.3180 N.am  258  LYS258     -0.1963
    167  CA        25.7210   10.7110   14.5940 C.3   258  LYS258      0.1728
    168  C         26.9150   11.1660   15.4160 C.2   258  LYS258      0.2617
    169  O         27.9860   10.5620   15.3520 O.2   258  LYS258     -0.2715
    170  CB        25.6820   11.5420   13.3110 C.3   258  LYS258      0.0311
    171  CG        25.0550   10.8380   12.1420 C.3   258  LYS258      0.0038
    172  CD        25.3090   11.5770   10.8350 C.3   258  LYS258      0.0206
    173  CE        26.7860   11.6060   10.5060 C.3   258  LYS258      0.1093
    174  NZ        27.0150   11.9440    9.0750 N.3   258  LYS258     -0.1314
    175  N         26.7460   12.2540   16.1580 N.am  259  GLY259     -0.1940
    176  CA        27.8300   12.7420   16.9920 C.3   259  GLY259      0.2014
    177  C         29.0340   13.3800   16.3170 C.2   259  GLY259      0.2638
    178  O         30.1560   13.2050   16.7860 O.2   259  GLY259     -0.2714
    179  N         28.8240   14.1110   15.2250 N.am  260  VAL260     -0.1977
    180  CA        29.9250   14.7930   14.5430 C.3   260  VAL260      0.1596
    181  C         29.5850   16.2700   14.3590 C.2   260  VAL260      0.2287
    182  O         28.5130   16.7300   14.7560 O.2   260  VAL260     -0.2864
    183  CB        30.2090   14.2100   13.1320 C.3   260  VAL260      0.0276
    184  CG1       30.6210   12.7420   13.2330 C.3   260  VAL260      0.0022
    185  CG2       28.9850   14.3620   12.2510 C.3   260  VAL260      0.0022
    186  N         27.2570   17.8720   10.0500 N.3   263  ASP263     -0.1239
    187  CA        26.2310   17.0990    9.3700 C.3   263  ASP263      0.1674
    188  C         25.2210   18.0220    8.6960 C.2   263  ASP263      0.2266
    189  O         24.4150   17.5780    7.8820 O.2   263  ASP263     -0.2867
    190  CB        25.4920   16.1900   10.3460 C.3   263  ASP263      0.1410
    191  CG        24.6080   15.1890    9.6360 C.2   263  ASP263      0.3668
    192  OD1       23.5060   14.9010   10.1400 O.co2 263  ASP263     -0.2456
    193  OD2       25.0250   14.6860    8.5690 O.co2 263  ASP263     -0.2456
@<TRIPOS>BOND
     1   189   188    2
     2   193   191   ar
     3   188   187    1
     4   174   173    1
     5   187   186    1
     6   187   190    1
     7   191   192   ar
     8   191   190    1
     9   173   172    1
    10   172   171    1
    11    82    81   ar
    12   164   163    1
    13   171   170    1
    14   185   183    1
    15    81    83   ar
    16    81    80    1
    17   163   165    1
    18   163   162    2
    19    76    77    1
    20   183   184    1
    21   183   180    1
    22   170   167    1
    23    77    80    1
    24    77    78    1
    25   161   162    1
    26   161   160    1
    27    84    85    1
    28   160   159    1
    29   181   180    1
    30   181   182    2
    31    78    79    2
    32   180   179    1
    33   167   166    1
    34   167   168    1
    35   158   157    2
    36   179   177   am
    37    85    86    1
    38    85    88    1
    39   166   157   am
    40   169   168    2
    41   168   175   am
    42   157   156    1
    43   159   156    1
    44    86    87    2
    45   175   176    1
    46   156   155    1
    47   177   178    2
    48   177   176    1
    49    75    73    1
    50    88    89    1
    51    73    72    2
    52    73    74    1
    53    72    71    1
    54   110   108   am
    55   155   149   am
    56   126   127   ar
    57   126   124   ar
    58   109   108    2
    59   108   107    1
    60    99    97   ar
    61    99   100   ar
    62    67    68    2
    63    67    66    1
    64   127   125   ar
    65   106   107    1
    66   106   103    1
    67   101   100    1
    68   150   149    2
    69    70    71    1
    70    70    69    1
    71   124   122   ar
    72   105   104    2
    73   149   148    1
    74    97    95   ar
    75   100    98   ar
    76   104   103    1
    77   125   123   ar
    78   122   123   ar
    79   122   121    1
    80    66    69    1
    81    66    65    1
    82   103   102    1
    83    12    13    1
    84    12     9    1
    85    13    14    1
    86    11    10    2
    87    95    94    1
    88    95    96   ar
    89   139   138    2
    90   121   118    1
    91   148   147    1
    92   148   151    1
    93    98    96   ar
    94   136   137    1
    95   138   147   am
    96   138   137    1
    97    93    92    2
    98    92    91    1
    99    15    14    1
   100    15    16    1
   101    94    91    1
   102   137   140    1
   103   151   152    1
   104    10     9    1
   105    10    17   am
   106     4     3    2
   107     9     8    1
   108    91    90    1
   109   119   118    1
   110   119   120    2
   111   118   117    1
   112    53    54   ar
   113    53    51   ar
   114    54    52   ar
   115    18    17    1
   116    18    19    1
   117    18    21    1
   118    22    21    1
   119     3     8   am
   120     3     2    1
   121   152   154    1
   122   152   153    1
   123   140   141    1
   124    20    19    2
   125    19    23   am
   126    51    48   ar
   127    52    50   ar
   128    23    24    1
   129     5     2    1
   130     5     6    1
   131   141   143   ar
   132   141   142   ar
   133   143   145   ar
   134     2     1    1
   135    24    25    1
   136   142   144   ar
   137     1     7    1
   138    48    50   ar
   139    48    46   ar
   140    50    49   ar
   141   145   146   ar
   142     7     6    1
   143   144   146   ar
   144   130   131    2
   145   130   129    1
   146   128   129    1
   147    46    45    1
   148    46    47   ar
   149    49    47   ar
   150    25    27   am
   151    25    26    2
   152   114   113    2
   153    45    42    1
   154   132   129    1
   155   132   133    1
   156    27    28    1
   157   113   112    1
   158    39    38    1
   159    38    40    1
   160    38    35    1
   161    32    31    1
   162   134   133    1
   163   134   135    1
   164    41    42    1
   165    41    36   am
   166    42    43    1
   167    63    64   ar
   168    63    61   ar
   169    34    35    1
   170    34    29   am
   171    28    31    1
   172    28    29    1
   173    64    62   ar
   174    61    60   ar
   175    31    33    1
   176    35    36    1
   177   112   115    1
   178   112   111    1
   179    62    60   ar
   180    36    37    2
   181    29    30    2
   182    60    59    1
   183   115   116    1
   184    43    44    2
   185    59    56    1
   186    58    57    2
   187    56    57    1
   188    56    55    1
