@<TRIPOS>MOLECULE
tmp/1q22A01.pdb
 183 178 0 0 0
SMALL
GASTEIGER

@<TRIPOS>ATOM
      1  N          5.8880    6.5380   34.7760 N.3     3  ILE3       -0.1245
      2  CA         6.5070    7.2260   33.6520 C.3     3  ILE3        0.1561
      3  C          5.9620    6.6490   32.3340 C.2     3  ILE3        0.2260
      4  O          5.8760    7.3510   31.3200 O.2     3  ILE3       -0.2867
      5  CB         8.0430    7.0500   33.6990 C.3     3  ILE3        0.0252
      6  CG1        8.6800    7.6350   32.4370 C.3     3  ILE3        0.0019
      7  CG2        8.3920    5.5710   33.8670 C.3     3  ILE3        0.0019
      8  CD1       10.1650    7.4490   32.3830 C.3     3  ILE3        0.0001
      9  N          5.6830   16.9580   29.6550 N.3    26  LEU26      -0.1231
     10  CA         6.8970   16.7940   30.4410 C.3    26  LEU26       0.1693
     11  C          7.2720   18.0800   31.1820 C.2    26  LEU26       0.2592
     12  O          8.2930   18.1370   31.8810 O.2    26  LEU26      -0.2718
     13  CB         8.0420   16.3540   29.5330 C.3    26  LEU26       0.0284
     14  CG         7.7680   15.0470   28.7840 C.3    26  LEU26       0.0019
     15  CD1        8.9370   14.7150   27.8720 C.3    26  LEU26       0.0001
     16  CD2        7.5390   13.9350   29.7790 C.3    26  LEU26       0.0001
     17  N          6.4290   19.1020   31.0230 N.am   27  TYR27      -0.1976
     18  CA         6.6170   20.4060   31.6510 C.3    27  TYR27       0.1639
     19  C          5.2460   20.9880   31.9830 C.2    27  TYR27       0.2290
     20  O          4.2510   20.6640   31.3300 O.2    27  TYR27      -0.2864
     21  CB         7.3240   21.3620   30.6930 C.3    27  TYR27       0.0560
     22  CG         8.6630   20.8870   30.1860 C.ar   27  TYR27      -0.0198
     23  CD1        9.8210   21.0880   30.9320 C.ar   27  TYR27      -0.0009
     24  CD2        8.7770   20.2530   28.9470 C.ar   27  TYR27      -0.0009
     25  CE1       11.0630   20.6770   30.4620 C.ar   27  TYR27       0.0417
     26  CE2       10.0140   19.8350   28.4670 C.ar   27  TYR27       0.0417
     27  CZ        11.1520   20.0530   29.2330 C.ar   27  TYR27       0.1957
     28  OH        12.3770   19.6460   28.7770 O.3    27  TYR27      -0.2866
     29  N         18.5810   22.9220   23.6230 N.3    52  PRO52      -0.2102
     30  CA        18.4160   21.5320   23.1680 C.3    52  PRO52       0.1504
     31  C         19.2630   21.0840   21.9690 C.2    52  PRO52       0.2575
     32  O         19.4690   21.8380   21.0090 O.2    52  PRO52      -0.2718
     33  CB        16.9210   21.4460   22.8800 C.3    52  PRO52       0.0282
     34  CG        16.3540   22.3230   23.9690 C.3    52  PRO52       0.0208
     35  CD        17.2730   23.5260   23.9330 C.3    52  PRO52       0.0893
     36  N         19.7610   19.8500   22.0520 N.am   53  LYS53      -0.1980
     37  CA        20.5610   19.2280   20.9960 C.3    53  LYS53       0.1596
     38  C         21.9620   19.7840   20.7870 C.2    53  LYS53       0.2287
     39  O         22.5180   19.6530   19.6930 O.2    53  LYS53      -0.2864
     40  CB        19.8100   19.2780   19.6620 C.3    53  LYS53       0.0298
     41  CG        18.3130   19.0450   19.7730 C.3    53  LYS53       0.0038
     42  CD        17.9730   17.9380   20.7590 C.3    53  LYS53       0.0206
     43  CE        18.5680   16.5850   20.3660 C.3    53  LYS53       0.1093
     44  NZ        18.3130   15.5540   21.4190 N.3    53  LYS53      -0.1314
     45  N         24.2010   18.1210   25.3910 N.3    56  THR56      -0.1218
     46  CA        23.9810   18.1170   26.8290 C.3    56  THR56       0.1862
     47  C         24.4420   16.7590   27.3570 C.2    56  THR56       0.2287
     48  O         25.2750   16.6810   28.2580 O.2    56  THR56      -0.2866
     49  CB        22.4820   18.2620   27.1730 C.3    56  THR56       0.1770
     50  OG1       21.9040   19.3110   26.3930 O.3    56  THR56      -0.2211
     51  CG2       22.3050   18.5770   28.6500 C.3    56  THR56       0.0375
     52  N         19.4550   10.5600   33.3650 N.3    81  TRP81      -0.1241
     53  CA        18.5110   11.5750   33.8210 C.3    81  TRP81       0.1605
     54  C         18.3270   11.6170   35.3280 C.2    81  TRP81       0.2264
     55  O         17.6770   12.5240   35.8700 O.2    81  TRP81      -0.2867
     56  CB        17.1570   11.3760   33.1430 C.3    81  TRP81       0.0550
     57  CG        16.4860   10.0800   33.4850 C.ar   81  TRP81       0.0003
     58  CD1       15.7380    9.8030   34.5990 C.ar   81  TRP81       0.0946
     59  CD2       16.5080    8.8790   32.7080 C.ar   81  TRP81       0.0152
     60  NE1       15.2890    8.5010   34.5570 N.ar   81  TRP81      -0.2442
     61  CE2       15.7490    7.9130   33.4080 C.ar   81  TRP81       0.0810
     62  CE3       17.0950    8.5250   31.4860 C.ar   81  TRP81       0.0012
     63  CZ2       15.5650    6.6180   32.9230 C.ar   81  TRP81       0.0191
     64  CZ3       16.9110    7.2370   31.0040 C.ar   81  TRP81       0.0001
     65  CH2       16.1510    6.3020   31.7210 C.ar   81  TRP81       0.0015
     66  N         16.6630   17.2640   35.5000 N.3    86  TRP86      -0.1241
     67  CA        16.2900   18.5420   34.9040 C.3    86  TRP86       0.1605
     68  C         15.4990   19.4220   35.8820 C.2    86  TRP86       0.2264
     69  O         14.6240   18.9370   36.6070 O.2    86  TRP86      -0.2867
     70  CB        15.4970   18.2930   33.6190 C.3    86  TRP86       0.0550
     71  CG        16.2890   17.4620   32.6520 C.ar   86  TRP86       0.0003
     72  CD1       16.4000   16.0910   32.6350 C.ar   86  TRP86       0.0946
     73  CD2       17.1720   17.9460   31.6270 C.ar   86  TRP86       0.0152
     74  NE1       17.2970   15.6980   31.6690 N.ar   86  TRP86      -0.2442
     75  CE2       17.7870   16.8110   31.0350 C.ar   86  TRP86       0.0810
     76  CE3       17.5020   19.2250   31.1500 C.ar   86  TRP86       0.0012
     77  CZ2       18.7160   16.9210   29.9970 C.ar   86  TRP86       0.0191
     78  CZ3       18.4240   19.3350   30.1170 C.ar   86  TRP86       0.0001
     79  CH2       19.0210   18.1890   29.5490 C.ar   86  TRP86       0.0015
     80  N         11.5700   20.2590   34.3400 N.3    89  THR89      -0.1218
     81  CA        10.6950   19.1050   34.0770 C.3    89  THR89       0.1862
     82  C          9.8070   18.8390   35.2930 C.2    89  THR89       0.2287
     83  O         10.2060   19.1000   36.4380 O.2    89  THR89      -0.2866
     84  CB        11.5090   17.8420   33.7980 C.3    89  THR89       0.1770
     85  OG1       12.3940   17.6060   34.9020 O.3    89  THR89      -0.2211
     86  CG2       12.3390   18.0020   32.5130 C.3    89  THR89       0.0375
     87  N          9.1340   16.3290   36.8690 N.3    91  VAL91      -0.1245
     88  CA         9.8000   15.5140   37.8800 C.3    91  VAL91       0.1561
     89  C         11.2300   16.0470   37.8940 C.2    91  VAL91       0.2260
     90  O         12.1270   15.4420   37.3100 O.2    91  VAL91      -0.2867
     91  CB         9.8340   13.9970   37.5090 C.3    91  VAL91       0.0252
     92  CG1       10.6880   13.2610   38.5370 C.3    91  VAL91       0.0019
     93  CG2        8.4280   13.4320   37.4670 C.3    91  VAL91       0.0019
     94  N         17.4910   23.5200   30.2240 N.3   105  HIS105     -0.1241
     95  CA        17.4320   24.0990   28.8790 C.3   105  HIS105      0.1621
     96  C         16.8240   25.5160   28.9100 C.2   105  HIS105      0.2264
     97  O         16.6230   26.1400   27.8700 O.2   105  HIS105     -0.2867
     98  CB        16.5980   23.2220   27.9350 C.3   105  HIS105      0.0745
     99  CG        17.3050   21.9870   27.4730 C.ar  105  HIS105      0.0817
    100  ND1       18.6470   21.9710   27.1600 N.ar  105  HIS105     -0.2268
    101  CD2       16.8510   20.7310   27.2550 C.ar  105  HIS105      0.1154
    102  CE1       18.9900   20.7570   26.7700 C.ar  105  HIS105      0.1986
    103  NE2       17.9190   19.9870   26.8180 N.ar  105  HIS105     -0.2212
    104  N         15.5080   14.1770   15.8710 N.3   139  TYR139     -0.1241
    105  CA        15.0580   13.8300   17.2060 C.3   139  TYR139      0.1605
    106  C         13.5560   14.0560   17.3920 C.2   139  TYR139      0.2264
    107  O         12.8940   13.3190   18.1250 O.2   139  TYR139     -0.2867
    108  CB        15.8630   14.6230   18.2350 C.3   139  TYR139      0.0534
    109  CG        15.3450   14.5480   19.6570 C.ar  139  TYR139     -0.0201
    110  CD1       15.4570   13.3800   20.4120 C.ar  139  TYR139     -0.0009
    111  CD2       14.7760   15.6680   20.2620 C.ar  139  TYR139     -0.0009
    112  CE1       15.0190   13.3350   21.7430 C.ar  139  TYR139      0.0417
    113  CE2       14.3350   15.6310   21.5820 C.ar  139  TYR139      0.0417
    114  CZ        14.4620   14.4660   22.3160 C.ar  139  TYR139      0.1957
    115  OH        14.0350   14.4550   23.6230 O.3   139  TYR139     -0.2866
    116  N          7.2960   13.8100   23.0990 N.3   145  GLN145     -0.1245
    117  CA         6.8190   15.1220   23.5320 C.3   145  GLN145      0.1566
    118  C          6.8420   16.1780   22.4260 C.2   145  GLN145      0.2260
    119  O          6.2460   17.2380   22.5790 O.2   145  GLN145     -0.2867
    120  CB         7.6410   15.6300   24.7300 C.3   145  GLN145      0.0367
    121  CG         9.0140   16.2140   24.3730 C.3   145  GLN145      0.0905
    122  CD        10.1150   15.1700   24.2580 C.2   145  GLN145      0.2608
    123  OE1        9.8590   13.9900   23.9930 O.2   145  GLN145     -0.2717
    124  NE2       11.3540   15.6060   24.4420 N.am  145  GLN145     -0.0878
    125  N         10.6340   24.3950   20.7310 N.3   165  GLN165     -0.1231
    126  CA        10.7610   24.2430   22.1710 C.3   165  GLN165      0.1698
    127  C         11.9010   25.1180   22.7190 C.2   165  GLN165      0.2592
    128  O         13.0160   25.1220   22.1830 O.2   165  GLN165     -0.2718
    129  CB        11.0110   22.7640   22.5210 C.3   165  GLN165      0.0381
    130  CG        12.4570   22.3390   22.3990 C.3   165  GLN165      0.0905
    131  CD        12.6830   20.9170   22.8400 C.2   165  GLN165      0.2608
    132  OE1       11.9700   20.3980   23.7030 O.2   165  GLN165     -0.2717
    133  NE2       13.6960   20.2780   22.2650 N.am  165  GLN165     -0.0878
    134  N         11.6110   25.8610   23.7820 N.am  166  PHE166     -0.1976
    135  CA        12.6050   26.7240   24.4160 C.3   166  PHE166      0.1639
    136  C         12.9400   28.0130   23.6490 C.2   166  PHE166      0.2290
    137  O         13.8950   28.7170   23.9820 O.2   166  PHE166     -0.2864
    138  CB        13.8680   25.9120   24.7170 C.3   166  PHE166      0.0560
    139  CG        13.6690   24.8950   25.8020 C.ar  166  PHE166     -0.0200
    140  CD1       13.4770   25.3030   27.1220 C.ar  166  PHE166     -0.0042
    141  CD2       13.6060   23.5330   25.5050 C.ar  166  PHE166     -0.0042
    142  CE1       13.2220   24.3720   28.1410 C.ar  166  PHE166     -0.0003
    143  CE2       13.3530   22.5870   26.5160 C.ar  166  PHE166     -0.0003
    144  CZ        13.1590   23.0090   27.8400 C.ar  166  PHE166     -0.0000
    145  N         19.6820    6.3780   26.5630 N.3   237  TYR237     -0.1241
    146  CA        18.2270    6.4760   26.6060 C.3   237  TYR237      0.1605
    147  C         17.4050    5.3100   26.0540 C.2   237  TYR237      0.2264
    148  O         16.1910    5.4440   25.8800 O.2   237  TYR237     -0.2867
    149  CB        17.8000    7.7600   25.9060 C.3   237  TYR237      0.0534
    150  CG        18.2910    9.0040   26.6000 C.ar  237  TYR237     -0.0201
    151  CD1       17.6690    9.4760   27.7530 C.ar  237  TYR237     -0.0009
    152  CD2       19.3700    9.7140   26.0980 C.ar  237  TYR237     -0.0009
    153  CE1       18.1130   10.6350   28.3810 C.ar  237  TYR237      0.0417
    154  CE2       19.8220   10.8700   26.7190 C.ar  237  TYR237      0.0417
    155  CZ        19.1880   11.3300   27.8540 C.ar  237  TYR237      0.1957
    156  OH        19.6100   12.5050   28.4310 O.3   237  TYR237     -0.2866
    157  N         14.0950    4.2570   28.0210 N.3   240  LEU240     -0.1245
    158  CA        12.8580    5.0300   28.0420 C.3   240  LEU240      0.1561
    159  C         11.7330    4.3130   27.3080 C.2   240  LEU240      0.2260
    160  O         11.9820    3.5310   26.3980 O.2   240  LEU240     -0.2867
    161  CB        13.0680    6.4050   27.3920 C.3   240  LEU240      0.0270
    162  CG        14.0630    7.3770   28.0280 C.3   240  LEU240      0.0019
    163  CD1       14.0210    8.6960   27.2750 C.3   240  LEU240      0.0001
    164  CD2       13.7200    7.6040   29.4920 C.3   240  LEU240      0.0001
    165  N          7.7200    7.6420   24.4890 N.3   244  LEU244     -0.1245
    166  CA         8.5290    8.8190   24.7700 C.3   244  LEU244      0.1561
    167  C          9.6720    8.9390   23.7650 C.2   244  LEU244      0.2260
    168  O         10.0290   10.0400   23.3320 O.2   244  LEU244     -0.2867
    169  CB         9.0790    8.7330   26.1910 C.3   244  LEU244      0.0270
    170  CG         9.7590    9.9970   26.7100 C.3   244  LEU244      0.0019
    171  CD1        8.8190   11.2010   26.5850 C.3   244  LEU244      0.0001
    172  CD2       10.1530    9.7790   28.1530 C.3   244  LEU244      0.0001
    173  N         18.7900    8.2690   20.3350 N.3   252  PHE252     -0.1241
    174  CA        19.0360    9.6060   20.8660 C.3   252  PHE252      0.1605
    175  C         20.4170   10.0410   20.4030 C.2   252  PHE252      0.2264
    176  O         20.5940   11.1750   19.9630 O.2   252  PHE252     -0.2867
    177  CB        18.9860    9.6090   22.3890 C.3   252  PHE252      0.0534
    178  CG        18.9890   10.9940   22.9930 C.ar  252  PHE252     -0.0203
    179  CD1       17.8090   11.5650   23.4680 C.ar  252  PHE252     -0.0042
    180  CD2       20.1750   11.7090   23.1140 C.ar  252  PHE252     -0.0042
    181  CE1       17.8130   12.8260   24.0620 C.ar  252  PHE252     -0.0003
    182  CE2       20.1940   12.9670   23.7030 C.ar  252  PHE252     -0.0003
    183  CZ        19.0100   13.5310   24.1830 C.ar  252  PHE252     -0.0000
@<TRIPOS>BOND
     1   104   105    1
     2   105   106    1
     3   105   108    1
     4   106   107    2
     5   108   109    1
     6   109   111   ar
     7   109   110   ar
     8    40    41    1
     9    40    37    1
    10    39    38    2
    11    41    42    1
    12   176   175    2
    13   111   113   ar
    14   173   174    1
    15    43    42    1
    16    43    44    1
    17   175   174    1
    18   110   112   ar
    19   125   126    1
    20    38    37    1
    21   174   177    1
    22    37    36    1
    23    32    31    2
    24   113   114   ar
    25   112   114   ar
    26    31    36   am
    27    31    30    1
    28   126   129    1
    29   126   127    1
    30   128   127    2
    31   133   131   am
    32   114   115    1
    33   177   178    1
    34   130   129    1
    35   130   131    1
    36   118   119    2
    37   118   117    1
    38   127   134   am
    39   131   132    2
    40    33    30    1
    41    33    34    1
    42   178   180   ar
    43   178   179   ar
    44   116   117    1
    45   180   182   ar
    46    30    29    1
    47   168   167    2
    48   179   181   ar
    49   117   120    1
    50    29    35    1
    51   136   137    2
    52   136   135    1
    53   182   183   ar
    54   167   166    1
    55   134   135    1
    56    35    34    1
    57   123   122    2
    58   181   183   ar
    59   122   121    1
    60   122   124   am
    61   121   120    1
    62   135   138    1
    63   165   166    1
    64   138   139    1
    65   166   169    1
    66    45    46    1
    67   141   139   ar
    68   141   143   ar
    69   139   140   ar
    70   148   147    2
    71   149   150    1
    72   149   146    1
    73   147   146    1
    74   152   150   ar
    75   152   154   ar
    76   169   170    1
    77    50    49    1
    78   160   159    2
    79   143   144   ar
    80   145   146    1
    81   171   170    1
    82   150   151   ar
    83   170   172    1
    84   154   155   ar
    85   102   103   ar
    86   102   100   ar
    87   103   101   ar
    88    46    49    1
    89    46    47    1
    90   140   142   ar
    91   100    99   ar
    92    49    51    1
    93   101    99   ar
    94   163   162    1
    95   159   158    1
    96    47    48    2
    97   161   162    1
    98   161   158    1
    99    99    98    1
   100   151   153   ar
   101   144   142   ar
   102   155   153   ar
   103   155   156    1
   104    97    96    2
   105    15    14    1
   106    98    95    1
   107   157   158    1
   108   162   164    1
   109    26    24   ar
   110    26    27   ar
   111    28    27    1
   112    14    13    1
   113    14    16    1
   114    95    96    1
   115    95    94    1
   116    24    22   ar
   117    27    25   ar
   118    13    10    1
   119    79    77   ar
   120    79    78   ar
   121     9    10    1
   122    77    75   ar
   123    78    76   ar
   124    22    21    1
   125    22    23   ar
   126    10    11    1
   127    25    23   ar
   128    21    18    1
   129    64    62   ar
   130    64    65   ar
   131    17    11   am
   132    17    18    1
   133    75    73   ar
   134    75    74   ar
   135    76    73   ar
   136    11    12    2
   137     4     3    2
   138    20    19    2
   139    62    59   ar
   140    73    71   ar
   141    18    19    1
   142    74    72   ar
   143    65    63   ar
   144     3     2    1
   145     8     6    1
   146     6     5    1
   147    86    84    1
   148    72    71   ar
   149    71    70    1
   150    59    61   ar
   151    59    57   ar
   152    63    61   ar
   153    56    57    1
   154    56    53    1
   155    52    53    1
   156    61    60   ar
   157    57    58   ar
   158    70    67    1
   159     2     5    1
   160     2     1    1
   161     5     7    1
   162    84    81    1
   163    84    85    1
   164    53    54    1
   165    81    80    1
   166    81    82    1
   167    60    58   ar
   168    67    66    1
   169    67    68    1
   170    82    83    2
   171    54    55    2
   172    68    69    2
   173    87    88    1
   174    90    89    2
   175    93    91    1
   176    91    88    1
   177    91    92    1
   178    88    89    1
