@<TRIPOS>MOLECULE
tmp/1q23B01.pdb
 154 148 0 0 0
SMALL
GASTEIGER

@<TRIPOS>ATOM
      1  N          5.9070   -6.4350   20.6860 N.3    92  THR92      -0.1218
      2  CA         5.5510   -7.8250   20.4330 C.3    92  THR92       0.1862
      3  C          6.1200   -8.7800   21.3920 C.2    92  THR92       0.2287
      4  O          7.2770   -8.6260   21.9220 O.2    92  THR92      -0.2866
      5  CB         5.9390   -8.3150   19.0270 C.3    92  THR92       0.1770
      6  OG1        7.2700   -7.9660   18.7320 O.3    92  THR92      -0.2211
      7  CG2        5.1890   -7.5700   17.9790 C.3    92  THR92       0.0375
      8  N          2.2660  -14.8890   17.9740 N.3   101  PHE101     -0.1241
      9  CA         2.6780  -13.7130   18.6250 C.3   101  PHE101      0.1605
     10  C          1.5250  -12.9620   19.2670 C.2   101  PHE101      0.2264
     11  O          0.3070  -13.1180   18.9000 O.2   101  PHE101     -0.2867
     12  CB         3.5530  -12.8300   17.7160 C.3   101  PHE101      0.0534
     13  CG         2.7560  -11.8610   16.8170 C.ar  101  PHE101     -0.0203
     14  CD1        2.4480  -10.5380   17.2750 C.ar  101  PHE101     -0.0042
     15  CD2        2.3410  -12.2880   15.5330 C.ar  101  PHE101     -0.0042
     16  CE1        1.7800   -9.6340   16.5280 C.ar  101  PHE101     -0.0003
     17  CE2        1.6200  -11.4500   14.6760 C.ar  101  PHE101     -0.0003
     18  CZ         1.2990  -10.0670   15.2010 C.ar  101  PHE101     -0.0000
     19  N          0.6930   -8.7560   20.8050 N.3   103  SER103     -0.1217
     20  CA         1.0790   -7.3850   21.0830 C.3   103  SER103      0.1889
     21  C          0.5910   -6.9280   22.4730 C.2   103  SER103      0.2288
     22  O         -0.6510   -6.8240   22.7480 O.2   103  SER103     -0.2866
     23  CB         0.4880   -6.4360   20.0530 C.3   103  SER103      0.2089
     24  OG         1.0880   -6.6000   18.7780 O.3   103  SER103     -0.2183
     25  N         -4.3360  -12.1150   20.7780 N.3   132  TYR132     -0.1227
     26  CA        -3.6660  -11.0760   19.9100 C.3   132  TYR132      0.1736
     27  C         -3.1790   -9.8560   20.8140 C.2   132  TYR132      0.2595
     28  O         -1.9370   -9.5390   20.8660 O.2   132  TYR132     -0.2718
     29  CB        -4.5450  -10.7220   18.7070 C.3   132  TYR132      0.0548
     30  CG        -3.8850   -9.6970   17.7310 C.ar  132  TYR132     -0.0200
     31  CD1       -2.4830   -9.6060   17.5640 C.ar  132  TYR132     -0.0009
     32  CD2       -4.6660   -8.8390   17.0060 C.ar  132  TYR132     -0.0009
     33  CE1       -1.8980   -8.6580   16.6710 C.ar  132  TYR132      0.0417
     34  CE2       -4.0700   -7.8730   16.1010 C.ar  132  TYR132      0.0417
     35  CZ        -2.7120   -7.7910   15.9640 C.ar  132  TYR132      0.1957
     36  OH        -2.2220   -6.8340   15.0770 O.3   132  TYR132     -0.2866
     37  N         -4.1670   -9.2710   21.5460 N.am  133  PHE133     -0.1976
     38  CA        -3.9980   -8.2650   22.5730 C.3   133  PHE133      0.1639
     39  C         -4.3210   -8.7350   23.9830 C.2   133  PHE133      0.2290
     40  O         -5.4080   -8.4730   24.5010 O.2   133  PHE133     -0.2864
     41  CB        -4.7780   -6.9470   22.2290 C.3   133  PHE133      0.0560
     42  CG        -4.1620   -6.1870   21.0990 C.ar  133  PHE133     -0.0200
     43  CD1       -4.3170   -6.6320   19.7550 C.ar  133  PHE133     -0.0042
     44  CD2       -3.3560   -5.0890   21.3470 C.ar  133  PHE133     -0.0042
     45  CE1       -3.6820   -5.9270   18.6910 C.ar  133  PHE133     -0.0003
     46  CE2       -2.7260   -4.3630   20.3050 C.ar  133  PHE133     -0.0003
     47  CZ        -2.8520   -4.7710   18.9900 C.ar  133  PHE133     -0.0000
     48  N         -6.3270   -3.1160   23.9270 N.3   137  PHE137     -0.1241
     49  CA        -5.6410   -2.0310   23.3430 C.3   137  PHE137      0.1605
     50  C         -6.1380   -0.7310   23.9550 C.2   137  PHE137      0.2264
     51  O         -7.3340   -0.4960   24.1040 O.2   137  PHE137     -0.2867
     52  CB        -5.6930   -2.0700   21.7840 C.3   137  PHE137      0.0534
     53  CG        -7.0700   -1.8940   21.2030 C.ar  137  PHE137     -0.0203
     54  CD1       -7.5240   -0.5860   20.8480 C.ar  137  PHE137     -0.0042
     55  CD2       -7.9200   -3.0010   21.0250 C.ar  137  PHE137     -0.0042
     56  CE1       -8.8480   -0.3640   20.2820 C.ar  137  PHE137     -0.0003
     57  CE2       -9.2630   -2.8270   20.4630 C.ar  137  PHE137     -0.0003
     58  CZ        -9.7300   -1.5100   20.0910 C.ar  137  PHE137     -0.0000
     59  N         -1.1800    4.3860   22.0890 N.3   141  MET141     -0.1245
     60  CA        -0.0130    3.5400   21.9180 C.3   141  MET141      0.1570
     61  C          0.8540    3.8540   20.6550 C.2   141  MET141      0.2261
     62  O          0.3240    4.4050   19.7400 O.2   141  MET141     -0.2867
     63  CB        -0.4020    2.1110   21.8670 C.3   141  MET141      0.0387
     64  CG        -1.6280    1.6860   22.6310 C.3   141  MET141      0.0595
     65  SD        -1.8210   -0.1790   22.5970 S.3   141  MET141     -0.1393
     66  CE        -2.6520   -0.3100   21.0000 C.3   141  MET141      0.0692
     67  N          3.7120    1.3860   18.0790 N.3   143  PHE143     -0.1227
     68  CA         4.0990   -0.0290   17.9820 C.3   143  PHE143      0.1736
     69  C          5.6120   -0.3070   17.7950 C.2   143  PHE143      0.2595
     70  O          6.3000    0.4950   17.1470 O.2   143  PHE143     -0.2718
     71  CB         3.3440   -0.5770   16.8370 C.3   143  PHE143      0.0547
     72  CG         1.8530   -0.4020   17.0510 C.ar  143  PHE143     -0.0202
     73  CD1        1.1990    0.7570   16.5670 C.ar  143  PHE143     -0.0042
     74  CD2        1.1450   -1.3450   17.8430 C.ar  143  PHE143     -0.0042
     75  CE1       -0.1930    0.9760   16.7760 C.ar  143  PHE143     -0.0003
     76  CE2       -0.2960   -1.1660   18.0820 C.ar  143  PHE143     -0.0003
     77  CZ        -0.9390    0.0130   17.5460 C.ar  143  PHE143     -0.0000
     78  N          6.0420   -1.4790   18.3070 N.am  144  VAL144     -0.1966
     79  CA         7.4330   -1.8930   18.1900 C.3   144  VAL144      0.1727
     80  C          7.2720   -3.3760   17.8690 C.2   144  VAL144      0.2616
     81  O          6.4970   -4.0500   18.5450 O.2   144  VAL144     -0.2715
     82  CB         8.2560   -1.6950   19.4830 C.3   144  VAL144      0.0290
     83  CG1        9.8240   -1.9540   19.2710 C.3   144  VAL144      0.0023
     84  CG2        8.0590   -0.2000   20.0010 C.3   144  VAL144      0.0023
     85  N          7.9610   -3.8950   16.8630 N.am  145  SER145     -0.1950
     86  CA         8.0120   -5.3560   16.8050 C.3   145  SER145      0.1924
     87  C          9.4230   -5.7970   16.6990 C.2   145  SER145      0.2314
     88  O         10.2380   -5.0740   16.0670 O.2   145  SER145     -0.2863
     89  CB         7.2290   -5.9690   15.6600 C.3   145  SER145      0.2116
     90  OG         7.8230   -5.6100   14.4900 O.3   145  SER145     -0.2180
     91  N         12.3570   -3.0160    5.5330 N.3   155  PHE155     -0.1241
     92  CA        11.1820   -3.6220    6.0890 C.3   155  PHE155      0.1605
     93  C         10.1470   -2.5400    5.8510 C.2   155  PHE155      0.2264
     94  O         10.3240   -1.3740    6.3040 O.2   155  PHE155     -0.2867
     95  CB        11.1870   -3.7800    7.6490 C.3   155  PHE155      0.0534
     96  CG         9.9700   -4.5350    8.1340 C.ar  155  PHE155     -0.0203
     97  CD1        9.9570   -5.9060    8.0840 C.ar  155  PHE155     -0.0042
     98  CD2        8.8410   -3.8840    8.5190 C.ar  155  PHE155     -0.0042
     99  CE1        8.8800   -6.5720    8.4740 C.ar  155  PHE155     -0.0003
    100  CE2        7.7260   -4.6160    8.8950 C.ar  155  PHE155     -0.0003
    101  CZ         7.7800   -5.9370    8.8610 C.ar  155  PHE155     -0.0000
    102  N          5.7860   -1.7150    5.8870 N.3   157  LEU157     -0.1301
    103  CA         4.4910   -2.1040    6.2950 C.3   157  LEU157      0.1247
    104  C          3.6250   -1.3850    5.3090 C.3   157  LEU157      0.2009
    105  O          3.8700   -0.1180    5.0800 O.3   157  LEU157     -0.2188
    106  CB         4.2170   -1.4200    7.5760 C.3   157  LEU157      0.0217
    107  CG         3.2380   -1.9390    8.6000 C.3   157  LEU157      0.0015
    108  CD1        2.5700   -0.8280    9.4980 C.3   157  LEU157      0.0000
    109  CD2        2.3540   -2.9100    8.1260 C.3   157  LEU157      0.0000
    110  N         -0.2080   -0.8120    5.2500 N.3   159  VAL159     -0.1231
    111  CA        -1.4850   -0.8220    5.8720 C.3   159  VAL159      0.1692
    112  C         -2.6320   -0.6700    4.8170 C.2   159  VAL159      0.2592
    113  O         -2.5820    0.3070    4.0650 O.2   159  VAL159     -0.2718
    114  CB        -1.4460    0.3070    6.9150 C.3   159  VAL159      0.0266
    115  CG1       -2.7370    1.1210    6.8520 C.3   159  VAL159      0.0020
    116  CG2       -1.2300   -0.2330    8.3220 C.3   159  VAL159      0.0020
    117  N         -3.6530   -1.5560    4.7160 N.am  160  ALA160     -0.1966
    118  CA        -4.7410   -1.2890    3.7440 C.3   160  ALA160      0.1728
    119  C         -5.5920   -0.0950    4.0580 C.2   160  ALA160      0.2616
    120  O         -6.0520    0.5480    3.1430 O.2   160  ALA160     -0.2715
    121  CB        -5.6160   -2.4710    3.6600 C.3   160  ALA160      0.0334
    122  N         -5.8100    0.1910    5.3520 N.am  161  ASN161     -0.1972
    123  CA        -6.6680    1.3080    5.7380 C.3   161  ASN161      0.1688
    124  C         -5.8200    2.2450    6.5270 C.2   161  ASN161      0.2292
    125  O         -5.5620    2.0430    7.7290 O.2   161  ASN161     -0.2864
    126  CB        -7.8600    0.8150    6.6460 C.3   161  ASN161      0.1181
    127  CG        -8.4800   -0.4920    6.1580 C.2   161  ASN161      0.2629
    128  OD1       -8.4720   -1.7120    6.8690 O.2   161  ASN161     -0.2716
    129  ND2       -9.0070   -0.3490    4.9010 N.am  161  ASN161     -0.0877
    130  N         -4.5040    6.8170   10.7980 N.3   165  PHE165     -0.1298
    131  CA        -3.5340    5.9070   11.3980 C.3   165  PHE165      0.1290
    132  C         -2.1780    6.6050   11.7230 C.3   165  PHE165      0.2013
    133  O         -1.1180    6.5220   10.9730 O.3   165  PHE165     -0.2188
    134  CB        -3.3530    4.6520   10.5150 C.3   165  PHE165      0.0480
    135  CG        -2.3210    3.6660   11.0890 C.ar  165  PHE165     -0.0206
    136  CD1       -2.4280    3.2120   12.4310 C.ar  165  PHE165     -0.0042
    137  CD2       -1.2790    3.2470   10.3310 C.ar  165  PHE165     -0.0042
    138  CE1       -1.5360    2.3440   12.9600 C.ar  165  PHE165     -0.0003
    139  CE2       -0.3060    2.3080   10.8720 C.ar  165  PHE165     -0.0003
    140  CZ        -0.4450    1.8940   12.1880 C.ar  165  PHE165     -0.0000
    141  N          4.8800    3.0960   13.7160 N.3   169  VAL169     -0.1301
    142  CA         5.2990    1.7380   13.8140 C.3   169  VAL169      0.1246
    143  C          6.8690    1.5680   13.6060 C.3   169  VAL169      0.2009
    144  O          7.4710    1.8390   12.5020 O.3   169  VAL169     -0.2188
    145  CB         4.5660    0.8040   12.8960 C.3   169  VAL169      0.0202
    146  CG1        5.0830   -0.6710   13.0640 C.3   169  VAL169      0.0016
    147  CG2        2.9980    0.8970   13.0980 C.3   169  VAL169      0.0016
    148  N         10.2220   -1.2190   13.6120 N.3   171  THR171     -0.1218
    149  CA        10.4970   -2.6500   13.4300 C.3   171  THR171      0.1862
    150  C         11.9760   -2.8050   13.6560 C.2   171  THR171      0.2287
    151  O         12.7210   -2.1310   13.0550 O.2   171  THR171     -0.2866
    152  CB        10.0970   -3.1820   12.0020 C.3   171  THR171      0.1770
    153  OG1        8.7230   -2.9460   11.7910 O.3   171  THR171     -0.2211
    154  CG2       10.1230   -4.6980   11.9350 C.3   171  THR171      0.0375
@<TRIPOS>BOND
     1   120   119    2
     2   121   118    1
     3   118   119    1
     4   118   117    1
     5   119   122   am
     6   113   112    2
     7   117   112   am
     8   112   111    1
     9   129   127   am
    10   105   104    1
    11   110   111    1
    12   104   103    1
    13   122   123    1
    14    91    92    1
    15   123   124    1
    16   123   126    1
    17    93    92    1
    18    93    94    2
    19   111   114    1
    20   102   103    1
    21    92    95    1
    22   127   126    1
    23   127   128    2
    24   103   106    1
    25   124   125    2
    26   115   114    1
    27   114   116    1
    28   106   107    1
    29    95    96    1
    30    97    96   ar
    31    97    99   ar
    32   109   107    1
    33    96    98   ar
    34    99   101   ar
    35    98   100   ar
    36   107   108    1
    37   101   100   ar
    38   137   139   ar
    39   137   135   ar
    40   134   135    1
    41   134   131    1
    42   130   131    1
    43   139   140   ar
    44   133   132    1
    45   135   136   ar
    46   131   132    1
    47   153   152    1
    48   154   152    1
    49   152   149    1
    50   140   138   ar
    51   136   138   ar
    52   144   143    1
    53   145   146    1
    54   145   147    1
    55   145   142    1
    56   151   150    2
    57   149   148    1
    58   149   150    1
    59   143   142    1
    60   141   142    1
    61    90    89    1
    62    17    18   ar
    63    17    15   ar
    64    36    35    1
    65    18    16   ar
    66    15    13   ar
    67    89    86    1
    68    35    34   ar
    69    35    33   ar
    70    88    87    2
    71    34    32   ar
    72    16    14   ar
    73    73    75   ar
    74    73    72   ar
    75    33    31   ar
    76    87    86    1
    77    75    77   ar
    78    86    85    1
    79    13    14   ar
    80    13    12    1
    81    71    72    1
    82    71    68    1
    83    85    80   am
    84    32    30   ar
    85    72    74   ar
    86    70    69    2
    87    77    76   ar
    88    31    30   ar
    89    12     9    1
    90    30    29    1
    91    69    68    1
    92    69    78   am
    93    74    76   ar
    94    80    79    1
    95    80    81    2
    96     8     9    1
    97     7     5    1
    98    68    67    1
    99    79    78    1
   100    79    82    1
   101     9    10    1
   102    45    47   ar
   103    45    43   ar
   104    29    26    1
   105     6     5    1
   106    24    23    1
   107    11    10    2
   108    47    46   ar
   109     5     2    1
   110    83    82    1
   111    82    84    1
   112    62    61    2
   113    43    42   ar
   114    26    25    1
   115    26    27    1
   116    23    20    1
   117    58    56   ar
   118    58    57   ar
   119    56    54   ar
   120    46    44   ar
   121     2     1    1
   122     2     3    1
   123    57    55   ar
   124    61    60    1
   125    19    20    1
   126    27    28    2
   127    27    37   am
   128    54    53   ar
   129    66    65    1
   130    55    53   ar
   131    20    21    1
   132    42    44   ar
   133    42    41    1
   134    53    52    1
   135     3     4    2
   136    37    38    1
   137    52    49    1
   138    63    60    1
   139    63    64    1
   140    60    59    1
   141    41    38    1
   142    21    22    2
   143    38    39    1
   144    65    64    1
   145    49    48    1
   146    49    50    1
   147    50    51    2
   148    39    40    2
