@<TRIPOS>MOLECULE
tmp/1q25A01.pdb
 89 82 0 0 0
SMALL
GASTEIGER

@<TRIPOS>ATOM
      1  N         21.0430   38.7650   60.3620 N.3   102  VAL102     -0.1245
      2  CA        21.9770   39.3640   59.4180 C.3   102  VAL102      0.1561
      3  C         21.3510   40.6290   58.8520 C.2   102  VAL102      0.2260
      4  O         21.9050   41.7240   58.9630 O.2   102  VAL102     -0.2867
      5  CB        22.2950   38.3910   58.2590 C.3   102  VAL102      0.0252
      6  CG1       23.1020   39.0910   57.1760 C.3   102  VAL102      0.0019
      7  CG2       23.0600   37.1780   58.7970 C.3   102  VAL102      0.0019
      8  N         22.1810   33.8330   60.2350 N.3   112  GLU112     -0.1245
      9  CA        23.3730   33.0150   60.0060 C.3   112  GLU112      0.1567
     10  C         23.6220   32.2370   61.2950 C.2   112  GLU112      0.2260
     11  O         23.6620   32.8330   62.3690 O.2   112  GLU112     -0.2867
     12  CB        24.5900   33.8890   59.7030 C.3   112  GLU112      0.0388
     13  CG        25.8370   33.0800   59.4040 C.3   112  GLU112      0.1160
     14  CD        27.0500   33.9510   59.1740 C.2   112  GLU112      0.3649
     15  OE1       27.7240   34.3130   60.1570 O.co2 112  GLU112     -0.2457
     16  OE2       27.3220   34.2850   58.0060 O.co2 112  GLU112     -0.2457
     17  N         26.2930   29.5600   63.0400 N.3   114  ARG114     -0.1245
     18  CA        27.5350   28.7970   63.0730 C.3   114  ARG114      0.1563
     19  C         27.2760   27.8310   64.2180 C.2   114  ARG114      0.2260
     20  O         27.1730   28.2460   65.3720 O.2   114  ARG114     -0.2867
     21  CB        28.7180   29.7160   63.3900 C.3   114  ARG114      0.0307
     22  CG        28.8060   30.9080   62.4370 C.3   114  ARG114      0.0489
     23  CD        30.0170   31.7890   62.7240 C.3   114  ARG114      0.2205
     24  NE        31.1870   31.3080   62.0000 N.pl3 114  ARG114     -0.0865
     25  CZ        31.5860   31.7830   60.8240 C.cat 114  ARG114      0.5346
     26  NH1       30.9190   32.7680   60.2420 N.pl3 114  ARG114      0.1354
     27  NH2       32.6360   31.2460   60.2170 N.pl3 114  ARG114      0.1354
     28  N         33.8420   45.1440   65.9610 N.3   284  ARG284     -0.1245
     29  CA        34.1330   44.5020   64.6900 C.3   284  ARG284      0.1563
     30  C         35.2570   45.2610   63.9910 C.2   284  ARG284      0.2260
     31  O         35.4760   45.1200   62.7910 O.2   284  ARG284     -0.2867
     32  CB        32.8680   44.4330   63.8320 C.3   284  ARG284      0.0307
     33  CG        32.0660   43.1600   64.0870 C.3   284  ARG284      0.0489
     34  CD        30.6410   43.2370   63.5700 C.3   284  ARG284      0.2205
     35  NE        29.7760   43.9890   64.4750 N.pl3 284  ARG284     -0.0865
     36  CZ        28.4490   44.0220   64.3940 C.cat 284  ARG284      0.5346
     37  NH1       27.8170   43.3420   63.4440 N.pl3 284  ARG284      0.1354
     38  NH2       27.7490   44.7270   65.2760 N.pl3 284  ARG284      0.1354
     39  N         43.5040   37.5160   49.9940 N.3   339  ASP339     -0.1239
     40  CA        42.7820   38.3310   50.9660 C.3   339  ASP339      0.1674
     41  C         42.6190   37.5820   52.2830 C.2   339  ASP339      0.2266
     42  O         41.5400   37.0770   52.6140 O.2   339  ASP339     -0.2867
     43  CB        41.4040   38.7250   50.4460 C.3   339  ASP339      0.1410
     44  CG        40.7220   39.7340   51.3450 C.2   339  ASP339      0.3668
     45  OD1       39.5020   39.9440   51.1930 O.co2 339  ASP339     -0.2456
     46  OD2       41.4160   40.3220   52.2040 O.co2 339  ASP339     -0.2456
     47  N         40.0380   36.0440   57.4550 N.3   358  ARG358     -0.1245
     48  CA        39.8980   37.1320   56.4920 C.3   358  ARG358      0.1563
     49  C         39.7410   38.4790   57.1680 C.2   358  ARG358      0.2260
     50  O         39.1320   38.5790   58.2290 O.2   358  ARG358     -0.2867
     51  CB        38.7000   36.8620   55.5910 C.3   358  ARG358      0.0307
     52  CG        38.8470   35.5630   54.8400 C.3   358  ARG358      0.0489
     53  CD        37.6600   35.2740   53.9530 C.3   358  ARG358      0.2205
     54  NE        37.7710   33.9400   53.3670 N.pl3 358  ARG358     -0.0865
     55  CZ        38.6090   33.6070   52.3910 C.cat 358  ARG358      0.5346
     56  NH1       39.4300   34.5110   51.8590 N.pl3 358  ARG358      0.1354
     57  NH2       38.6330   32.3540   51.9530 N.pl3 358  ARG358      0.1354
     58  N         37.8070   41.0160   56.5680 N.3   360  GLN360     -0.1231
     59  CA        36.4350   41.4690   56.7540 C.3   360  GLN360      0.1698
     60  C         35.7620   40.7340   57.8920 C.2   360  GLN360      0.2592
     61  O         34.6310   41.0590   58.2890 O.2   360  GLN360     -0.2718
     62  CB        35.6270   41.2670   55.4610 C.3   360  GLN360      0.0381
     63  CG        36.2250   41.9190   54.2140 C.3   360  GLN360      0.0905
     64  CD        37.2080   41.0150   53.4580 C.2   360  GLN360      0.2608
     65  OE1       37.6090   41.3280   52.3310 O.2   360  GLN360     -0.2717
     66  NE2       37.6010   39.9020   54.0750 N.am  360  GLN360     -0.0878
     67  N         36.4610   39.7410   58.4290 N.am  361  ASN361     -0.1974
     68  CA        35.9030   38.9570   59.5100 C.3   361  ASN361      0.1688
     69  C         36.7540   38.9470   60.7460 C.2   361  ASN361      0.2292
     70  O         37.5270   38.0280   61.0500 O.2   361  ASN361     -0.2864
     71  CB        35.5040   37.6090   58.9520 C.3   361  ASN361      0.1181
     72  CG        34.3890   37.8160   57.9730 C.2   361  ASN361      0.2629
     73  OD1       33.9660   38.9670   57.8300 O.2   361  ASN361     -0.2716
     74  ND2       33.8630   36.8270   57.2910 N.am  361  ASN361     -0.0877
     75  N         38.1590   35.3030   61.3450 N.3   376  PHE376     -0.1227
     76  CA        37.4940   34.0800   60.9270 C.3   376  PHE376      0.1736
     77  C         37.1310   34.0610   59.4420 C.2   376  PHE376      0.2596
     78  O         37.5900   34.9030   58.6750 O.2   376  PHE376     -0.2718
     79  CB        36.2550   33.8470   61.8020 C.3   376  PHE376      0.0547
     80  CG        35.2690   34.9850   61.7950 C.ar  376  PHE376     -0.0202
     81  CD1       34.1530   34.9490   60.9620 C.ar  376  PHE376     -0.0042
     82  CD2       35.4450   36.0870   62.6370 C.ar  376  PHE376     -0.0042
     83  CE1       33.2180   35.9900   60.9670 C.ar  376  PHE376     -0.0003
     84  CE2       34.5200   37.1340   62.6500 C.ar  376  PHE376     -0.0003
     85  CZ        33.4000   37.0840   61.8120 C.ar  376  PHE376     -0.0000
     86  N         36.3220   33.0860   59.0380 N.am  377  GLY377     -0.1957
     87  CA        35.9280   32.9860   57.6430 C.3   377  GLY377      0.1869
     88  C         37.0090   32.4530   56.7090 C.2   377  GLY377      0.2309
     89  O         36.9690   32.7090   55.5040 O.2   377  GLY377     -0.2863
@<TRIPOS>BOND
     1    39    40    1
     2    43    40    1
     3    43    44    1
     4    40    41    1
     5    45    44   ar
     6    44    46   ar
     7    56    55    1
     8    57    55    1
     9    41    42    2
    10    65    64    2
    11    55    54    2
    12    54    53    1
    13    64    66   am
    14    64    63    1
    15    53    52    1
    16    63    62    1
    17    52    51    1
    18    62    59    1
    19    89    88    2
    20    51    48    1
    21    48    49    1
    22    48    47    1
    23    58    59    1
    24    88    87    1
    25    59    60    1
    26    49    50    2
    27     6     5    1
    28    74    72   am
    29    87    86    1
    30    73    72    2
    31    60    61    2
    32    60    67   am
    33    72    71    1
    34    16    14   ar
    35     5     7    1
    36     5     2    1
    37    67    68    1
    38    78    77    2
    39     3     4    2
    40     3     2    1
    41    71    68    1
    42    86    77   am
    43    14    13    1
    44    14    15   ar
    45    13    12    1
    46     2     1    1
    47    77    76    1
    48    68    69    1
    49    12     9    1
    50     9     8    1
    51     9    10    1
    52    27    25    1
    53    26    25    1
    54    69    70    2
    55    25    24    2
    56    76    75    1
    57    76    79    1
    58    81    83   ar
    59    81    80   ar
    60    83    85   ar
    61    10    11    2
    62    80    79    1
    63    80    82   ar
    64    85    84   ar
    65    24    23    1
    66    22    23    1
    67    22    21    1
    68    82    84   ar
    69    31    30    2
    70    17    18    1
    71    18    21    1
    72    18    19    1
    73    37    36    1
    74    34    33    1
    75    34    35    1
    76    32    33    1
    77    32    29    1
    78    30    29    1
    79    19    20    2
    80    36    35    2
    81    36    38    1
    82    29    28    1
