@<TRIPOS>MOLECULE
tmp/1q2cA01.pdb
 72 68 0 0 0
SMALL
GASTEIGER

@<TRIPOS>ATOM
      1  N         12.9740   26.1910   25.5620 N.3    86  VAL86      -0.1245
      2  CA        12.6940   27.3670   26.3900 C.3    86  VAL86       0.1561
      3  C         11.7290   27.0280   27.5230 C.2    86  VAL86       0.2260
      4  O         10.7580   27.7390   27.7620 O.2    86  VAL86      -0.2867
      5  CB        12.0910   28.5230   25.5490 C.3    86  VAL86       0.0252
      6  CG1       12.0910   29.8090   26.3700 C.3    86  VAL86       0.0019
      7  CG2       12.8910   28.7160   24.2650 C.3    86  VAL86       0.0019
      8  N         13.3950   25.1360   30.2240 N.3    88  GLY88      -0.1225
      9  CA        14.3750   24.7040   31.2030 C.3    88  GLY88       0.1811
     10  C         14.8580   23.2690   31.1160 C.2    88  GLY88       0.2280
     11  O         15.7130   22.8630   31.9040 O.2    88  GLY88      -0.2866
     12  N         16.6640   21.6410   28.6720 N.3    90  GLY90      -0.1210
     13  CA        18.0610   21.5800   28.2740 C.3    90  GLY90       0.1956
     14  C         19.0440   21.8190   29.4090 C.2    90  GLY90       0.2612
     15  O         20.0800   21.1590   29.5030 O.2    90  GLY90      -0.2717
     16  N         18.7350   22.7700   30.2790 N.am   91  THR91      -0.1952
     17  CA        19.6190   23.0610   31.4010 C.3    91  THR91       0.1897
     18  C         19.5100   21.9680   32.4510 C.2    91  THR91       0.2313
     19  O         20.5080   21.5980   33.0720 O.2    91  THR91      -0.2863
     20  CB        19.2800   24.4150   32.0420 C.3    91  THR91       0.1794
     21  OG1       19.5060   25.4480   31.0790 O.3    91  THR91      -0.2208
     22  CG2       20.1470   24.6690   33.2710 C.3    91  THR91       0.0378
     23  N         27.2010   30.4250   18.0890 N.3   116  PHE116     -0.1227
     24  CA        26.3490   30.5970   19.2430 C.3   116  PHE116      0.1736
     25  C         26.7130   29.5550   20.2890 C.2   116  PHE116      0.2595
     26  O         26.9870   29.9100   21.4300 O.2   116  PHE116     -0.2718
     27  CB        24.8640   30.5410   18.8170 C.3   116  PHE116      0.0547
     28  CG        24.2050   29.1910   18.9730 C.ar  116  PHE116     -0.0202
     29  CD1       23.3970   28.9340   20.0620 C.ar  116  PHE116     -0.0042
     30  CD2       24.3500   28.1960   18.0170 C.ar  116  PHE116     -0.0042
     31  CE1       22.7350   27.7120   20.2110 C.ar  116  PHE116     -0.0003
     32  CE2       23.6900   26.9810   18.1590 C.ar  116  PHE116     -0.0003
     33  CZ        22.8810   26.7380   19.2610 C.ar  116  PHE116     -0.0000
     34  N         26.7760   28.2880   19.8910 N.am  117  ALA117     -0.1980
     35  CA        27.1140   27.1820   20.7910 C.3   117  ALA117      0.1597
     36  C         28.0590   27.5210   21.9460 C.2   117  ALA117      0.2287
     37  O         27.7970   27.1610   23.0990 O.2   117  ALA117     -0.2864
     38  CB        27.7060   26.0400   19.9890 C.3   117  ALA117      0.0319
     39  N         28.6200   30.2190   23.4860 N.3   119  GLY119     -0.1210
     40  CA        27.8960   30.9500   24.5080 C.3   119  GLY119      0.1956
     41  C         27.0490   30.0570   25.3900 C.2   119  GLY119      0.2611
     42  O         26.9270   30.3160   26.5820 O.2   119  GLY119     -0.2717
     43  N         26.4680   29.0080   24.8120 N.am  120  TYR120     -0.1976
     44  CA        25.6220   28.0870   25.5710 C.3   120  TYR120      0.1639
     45  C         26.3850   27.3080   26.6320 C.2   120  TYR120      0.2290
     46  O         25.9510   27.2200   27.7720 O.2   120  TYR120     -0.2864
     47  CB        24.9320   27.0730   24.6530 C.3   120  TYR120      0.0560
     48  CG        24.0240   26.1530   25.4230 C.ar  120  TYR120     -0.0198
     49  CD1       22.8320   26.6270   25.9740 C.ar  120  TYR120     -0.0009
     50  CD2       24.3950   24.8340   25.6850 C.ar  120  TYR120     -0.0009
     51  CE1       22.0310   25.8150   26.7700 C.ar  120  TYR120      0.0417
     52  CE2       23.6010   24.0120   26.4900 C.ar  120  TYR120      0.0417
     53  CZ        22.4230   24.5130   27.0280 C.ar  120  TYR120      0.1957
     54  OH        21.6460   23.7250   27.8460 O.3   120  TYR120     -0.2866
     55  N         27.5710   29.2610   29.5990 N.3   123  LYS123     -0.1231
     56  CA        26.5140   29.4070   30.5910 C.3   123  LYS123      0.1693
     57  C         26.3230   28.1000   31.3460 C.2   123  LYS123      0.2591
     58  O         25.7870   28.0930   32.4540 O.2   123  LYS123     -0.2718
     59  CB        25.2130   29.8670   29.9170 C.3   123  LYS123      0.0285
     60  CG        25.2330   31.3680   29.6130 C.3   123  LYS123      0.0035
     61  CD        24.4620   31.7560   28.3540 C.3   123  LYS123      0.0206
     62  CE        22.9820   31.9800   28.6260 C.3   123  LYS123      0.1093
     63  NZ        22.3290   32.6730   27.4740 N.3   123  LYS123     -0.1314
     64  N         26.7780   26.9980   30.7500 N.am  124  GLN124     -0.1979
     65  CA        26.6860   25.6900   31.3980 C.3   124  GLN124      0.1601
     66  C         27.9740   25.3720   32.1610 C.2   124  GLN124      0.2287
     67  O         28.1960   24.2400   32.5910 O.2   124  GLN124     -0.2864
     68  CB        26.4220   24.5820   30.3770 C.3   124  GLN124      0.0394
     69  CG        25.1010   24.6980   29.6390 C.3   124  GLN124      0.0908
     70  CD        23.9310   24.9600   30.5660 C.2   124  GLN124      0.2608
     71  OE1       23.7780   24.3010   31.5940 O.2   124  GLN124     -0.2717
     72  NE2       23.0950   25.9250   30.2050 N.am  124  GLN124     -0.0878
@<TRIPOS>BOND
     1    30    32   ar
     2    30    28   ar
     3    23    24    1
     4    32    33   ar
     5    27    28    1
     6    27    24    1
     7    28    29   ar
     8    24    25    1
     9    33    31   ar
    10    34    25   am
    11    34    35    1
    12    38    35    1
    13    29    31   ar
    14    25    26    2
    15    35    36    1
    16    36    37    2
    17    39    40    1
    18     7     5    1
    19    40    41    1
    20    47    48    1
    21    47    44    1
    22    43    41   am
    23    43    44    1
    24    41    42    2
    25    48    50   ar
    26    48    49   ar
    27     5     6    1
    28     5     2    1
    29     1     2    1
    30    44    45    1
    31    50    52   ar
    32    49    51   ar
    33     2     3    1
    34    52    53   ar
    35    45    46    2
    36    51    53   ar
    37    53    54    1
    38    63    62    1
    39     3     4    2
    40    13    12    1
    41    13    14    1
    42    61    62    1
    43    61    60    1
    44    14    15    2
    45    14    16   am
    46    55    56    1
    47    60    59    1
    48    69    68    1
    49    69    70    1
    50    59    56    1
    51    72    70   am
    52     8     9    1
    53    16    17    1
    54    68    65    1
    55    70    71    2
    56    56    57    1
    57    64    57   am
    58    64    65    1
    59    21    20    1
    60    10     9    1
    61    10    11    2
    62    57    58    2
    63    65    66    1
    64    17    20    1
    65    17    18    1
    66    20    22    1
    67    66    67    2
    68    18    19    2
