@<TRIPOS>MOLECULE
tmp/1q2cA00.pdb
 160 159 0 0 0
SMALL
GASTEIGER

@<TRIPOS>ATOM
      1  N         17.6180   19.3130   14.7360 N.3    28  GLN28      -0.1231
      2  CA        18.1830   20.4370   15.4810 C.3    28  GLN28       0.1698
      3  C         19.6390   20.7720   15.1710 C.2    28  GLN28       0.2592
      4  O         20.1490   21.7960   15.6290 O.2    28  GLN28      -0.2718
      5  CB        18.0220   20.1980   16.9840 C.3    28  GLN28       0.0381
      6  CG        16.5830   20.2610   17.4520 C.3    28  GLN28       0.0905
      7  CD        15.9530   21.6230   17.1850 C.2    28  GLN28       0.2608
      8  OE1       16.4380   22.6430   17.6710 O.2    28  GLN28      -0.2717
      9  NE2       14.8730   21.6420   16.4090 N.am   28  GLN28      -0.0878
     10  N         20.3010   19.9160   14.3960 N.am   29  LEU29      -0.1980
     11  CA        21.6870   20.1410   13.9980 C.3    29  LEU29       0.1596
     12  C         21.7640   19.8890   12.4910 C.2    29  LEU29       0.2287
     13  O         22.3810   18.9300   12.0400 O.2    29  LEU29      -0.2864
     14  CB        22.6180   19.1810   14.7380 C.3    29  LEU29       0.0297
     15  CG        22.5650   19.1830   16.2730 C.3    29  LEU29       0.0022
     16  CD1       23.4830   18.1000   16.8210 C.3    29  LEU29       0.0001
     17  CD2       22.9920   20.5410   16.8070 C.3    29  LEU29       0.0001
     18  N         23.4870   21.1870   10.0690 N.3    31  LYS31      -0.1231
     19  CA        24.8100   21.1530    9.4510 C.3    31  LYS31       0.1693
     20  C         25.4950   19.8000    9.6640 C.2    31  LYS31       0.2591
     21  O         26.5520   19.5380    9.1020 O.2    31  LYS31      -0.2718
     22  CB        25.7090   22.2460   10.0450 C.3    31  LYS31       0.0285
     23  CG        25.2070   23.6770    9.8900 C.3    31  LYS31       0.0035
     24  CD        25.2460   24.1520    8.4510 C.3    31  LYS31       0.0206
     25  CE        24.8180   25.6190    8.3500 C.3    31  LYS31       0.1093
     26  NZ        24.7910   26.1190    6.9370 N.3    31  LYS31      -0.1314
     27  N         24.8930   18.9530   10.4920 N.am   32  MET32      -0.1979
     28  CA        25.4630   17.6440   10.8010 C.3    32  MET32       0.1605
     29  C         24.9320   16.5700    9.8660 C.2    32  MET32       0.2287
     30  O         23.7220   16.3980    9.7350 O.2    32  MET32      -0.2864
     31  CB        25.1260   17.2670   12.2470 C.3    32  MET32       0.0413
     32  CG        26.2060   16.4900   12.9610 C.3    32  MET32       0.0598
     33  SD        27.6700   17.4930   13.1720 S.3    32  MET32      -0.1393
     34  CE        28.8410   16.2840   13.5870 C.3    32  MET32       0.0692
     35  N         31.1490   15.3680   24.6910 N.3    75  VAL75      -0.1231
     36  CA        29.7530   15.5180   24.3160 C.3    75  VAL75       0.1692
     37  C         29.6880   15.5150   22.7920 C.2    75  VAL75       0.2592
     38  O         30.3120   16.3490   22.1310 O.2    75  VAL75      -0.2718
     39  CB        29.1560   16.8480   24.8300 C.3    75  VAL75       0.0266
     40  CG1       27.7330   17.0010   24.3040 C.3    75  VAL75       0.0020
     41  CG2       29.1650   16.8840   26.3660 C.3    75  VAL75       0.0020
     42  N         28.9440   14.5740   22.2320 N.am   76  ALA76      -0.1966
     43  CA        28.8240   14.4940   20.7850 C.3    76  ALA76       0.1728
     44  C         27.6500   15.3560   20.3200 C.2    76  ALA76       0.2616
     45  O         27.8110   16.2240   19.4580 O.2    76  ALA76      -0.2715
     46  CB        28.6210   13.0400   20.3480 C.3    76  ALA76       0.0334
     47  N         26.4730   15.1160   20.8900 N.am   77  PHE77      -0.1960
     48  CA        25.2950   15.8850   20.5170 C.3    77  PHE77       0.1771
     49  C         24.4190   16.1870   21.7210 C.2    77  PHE77       0.2619
     50  O         24.3020   15.3840   22.6460 O.2    77  PHE77      -0.2715
     51  CB        24.4550   15.1370   19.4760 C.3    77  PHE77       0.0574
     52  CG        25.2550   14.5730   18.3480 C.ar   77  PHE77      -0.0200
     53  CD1       25.4550   13.2030   18.2410 C.ar   77  PHE77      -0.0042
     54  CD2       25.8190   15.4100   17.3950 C.ar   77  PHE77      -0.0042
     55  CE1       26.2060   12.6820   17.1980 C.ar   77  PHE77      -0.0003
     56  CE2       26.5730   14.8920   16.3480 C.ar   77  PHE77      -0.0003
     57  CZ        26.7650   13.5270   16.2510 C.ar   77  PHE77      -0.0000
     58  N         23.8030   17.3590   21.6830 N.am   78  LEU78      -0.1977
     59  CA        22.9020   17.8110   22.7340 C.3    78  LEU78       0.1596
     60  C         21.7290   18.5210   22.0520 C.2    78  LEU78       0.2287
     61  O         21.9350   19.3140   21.1330 O.2    78  LEU78      -0.2864
     62  CB        23.6270   18.7830   23.6650 C.3    78  LEU78       0.0297
     63  CG        22.7620   19.6870   24.5600 C.3    78  LEU78       0.0022
     64  CD1       21.9610   18.8460   25.5500 C.3    78  LEU78       0.0001
     65  CD2       23.6660   20.6580   25.3120 C.3    78  LEU78       0.0001
     66  N         11.4130   23.4570   23.6800 N.3    85  GLN85      -0.1231
     67  CA        12.5080   24.3220   24.0900 C.3    85  GLN85       0.1698
     68  C         12.0280   25.5160   24.9190 C.2    85  GLN85       0.2592
     69  O         10.8430   25.8180   24.9640 O.2    85  GLN85      -0.2718
     70  CB        13.2550   24.8230   22.8570 C.3    85  GLN85       0.0381
     71  CG        13.8930   23.7110   22.0590 C.3    85  GLN85       0.0905
     72  CD        14.6390   24.2140   20.8450 C.2    85  GLN85       0.2608
     73  OE1       15.3650   23.4600   20.1950 O.2    85  GLN85      -0.2717
     74  NE2       14.4590   25.4880   20.5230 N.am   85  GLN85      -0.0878
     75  N         12.9740   26.1910   25.5620 N.am   86  VAL86      -0.1980
     76  CA        12.6940   27.3670   26.3900 C.3    86  VAL86       0.1595
     77  C         11.7290   27.0280   27.5230 C.2    86  VAL86       0.2287
     78  O         10.7580   27.7390   27.7620 O.2    86  VAL86      -0.2864
     79  CB        12.0910   28.5230   25.5490 C.3    86  VAL86       0.0276
     80  CG1       12.0910   29.8090   26.3700 C.3    86  VAL86       0.0022
     81  CG2       12.8910   28.7160   24.2650 C.3    86  VAL86       0.0022
     82  N         33.8580   19.2910   24.7990 N.3   111  THR111     -0.1203
     83  CA        32.9170   19.4160   23.6960 C.3   111  THR111      0.1994
     84  C         33.3830   20.4900   22.7240 C.2   111  THR111      0.2618
     85  O         33.9450   21.5140   23.1290 O.2   111  THR111     -0.2717
     86  CB        31.4860   19.7840   24.1850 C.3   111  THR111      0.1784
     87  OG1       30.5590   19.6550   23.0960 O.3   111  THR111     -0.2211
     88  CG2       31.4360   21.2220   24.7120 C.3   111  THR111      0.0376
     89  N         33.1820   20.2410   21.4370 N.am  112  TYR112     -0.1961
     90  CA        33.5380   21.2310   20.4350 C.3   112  TYR112      0.1771
     91  C         32.3230   22.1360   20.2790 C.2   112  TYR112      0.2619
     92  O         31.1910   21.6640   20.3080 O.2   112  TYR112     -0.2715
     93  CB        33.8680   20.5710   19.0990 C.3   112  TYR112      0.0574
     94  CG        35.3210   20.1810   18.9990 C.ar  112  TYR112     -0.0198
     95  CD1       35.7280   18.8520   19.1600 C.ar  112  TYR112     -0.0009
     96  CD2       36.3020   21.1560   18.8040 C.ar  112  TYR112     -0.0009
     97  CE1       37.0700   18.5070   19.1320 C.ar  112  TYR112      0.0417
     98  CE2       37.6530   20.8230   18.7770 C.ar  112  TYR112      0.0417
     99  CZ        38.0330   19.4980   18.9430 C.ar  112  TYR112      0.1957
    100  OH        39.3780   19.1730   18.9350 O.3   112  TYR112     -0.2866
    101  N         32.5520   23.4370   20.1400 N.am  113  ALA113     -0.1963
    102  CA        31.4510   24.3810   19.9780 C.3   113  ALA113      0.1728
    103  C         31.7450   25.3710   18.8660 C.2   113  ALA113      0.2616
    104  O         32.9040   25.7150   18.6060 O.2   113  ALA113     -0.2715
    105  CB        31.2110   25.1300   21.2750 C.3   113  ALA113      0.0334
    106  N         30.6910   25.8320   18.2100 N.am  114  ASP114     -0.1957
    107  CA        30.8610   26.8030   17.1440 C.3   114  ASP114      0.1840
    108  C         29.8190   27.8980   17.2860 C.2   114  ASP114      0.2622
    109  O         28.7060   27.6520   17.7670 O.2   114  ASP114     -0.2715
    110  CB        30.6990   26.1370   15.7750 C.3   114  ASP114      0.1450
    111  CG        31.1970   27.0150   14.6290 C.2   114  ASP114      0.3671
    112  OD1       31.0530   26.5950   13.4570 O.co2 114  ASP114     -0.2456
    113  OD2       31.7330   28.1180   14.8950 O.co2 114  ASP114     -0.2456
    114  N         30.1900   29.1060   16.8740 N.am  115  ASN115     -0.1958
    115  CA        29.2840   30.2440   16.9090 C.3   115  ASN115      0.1819
    116  C         28.5250   30.4050   18.2080 C.2   115  ASN115      0.2621
    117  O         29.1150   30.5090   19.2840 O.2   115  ASN115     -0.2715
    118  CB        28.2740   30.1320   15.7680 C.3   115  ASN115      0.1195
    119  CG        28.9250   30.1980   14.4130 C.2   115  ASN115      0.2630
    120  OD1       28.3070   29.8810   13.3950 O.2   115  ASN115     -0.2716
    121  ND2       30.1840   30.6160   14.3880 N.am  115  ASN115     -0.0877
    122  N         27.2010   30.4250   18.0890 N.am  116  PHE116     -0.1960
    123  CA        26.3490   30.5970   19.2430 C.3   116  PHE116      0.1771
    124  C         26.7130   29.5550   20.2890 C.2   116  PHE116      0.2619
    125  O         26.9870   29.9100   21.4300 O.2   116  PHE116     -0.2715
    126  CB        24.8640   30.5410   18.8170 C.3   116  PHE116      0.0574
    127  CG        24.2050   29.1910   18.9730 C.ar  116  PHE116     -0.0200
    128  CD1       23.3970   28.9340   20.0620 C.ar  116  PHE116     -0.0042
    129  CD2       24.3500   28.1960   18.0170 C.ar  116  PHE116     -0.0042
    130  CE1       22.7350   27.7120   20.2110 C.ar  116  PHE116     -0.0003
    131  CE2       23.6900   26.9810   18.1590 C.ar  116  PHE116     -0.0003
    132  CZ        22.8810   26.7380   19.2610 C.ar  116  PHE116     -0.0000
    133  N         26.7760   28.2880   19.8910 N.am  117  ALA117     -0.1977
    134  CA        27.1140   27.1820   20.7910 C.3   117  ALA117      0.1597
    135  C         28.0590   27.5210   21.9460 C.2   117  ALA117      0.2287
    136  O         27.7970   27.1610   23.0990 O.2   117  ALA117     -0.2864
    137  CB        27.7060   26.0400   19.9890 C.3   117  ALA117      0.0319
    138  N         26.4680   29.0080   24.8120 N.3   120  TYR120     -0.1227
    139  CA        25.6220   28.0870   25.5710 C.3   120  TYR120      0.1736
    140  C         26.3850   27.3080   26.6320 C.2   120  TYR120      0.2595
    141  O         25.9510   27.2200   27.7720 O.2   120  TYR120     -0.2718
    142  CB        24.9320   27.0730   24.6530 C.3   120  TYR120      0.0548
    143  CG        24.0240   26.1530   25.4230 C.ar  120  TYR120     -0.0200
    144  CD1       22.8320   26.6270   25.9740 C.ar  120  TYR120     -0.0009
    145  CD2       24.3950   24.8340   25.6850 C.ar  120  TYR120     -0.0009
    146  CE1       22.0310   25.8150   26.7700 C.ar  120  TYR120      0.0417
    147  CE2       23.6010   24.0120   26.4900 C.ar  120  TYR120      0.0417
    148  CZ        22.4230   24.5130   27.0280 C.ar  120  TYR120      0.1957
    149  OH        21.6460   23.7250   27.8460 O.3   120  TYR120     -0.2866
    150  N         27.5110   26.7260   26.2370 N.am  121  PHE121     -0.1976
    151  CA        28.3290   25.9550   27.1520 C.3   121  PHE121      0.1639
    152  C         29.0100   26.8270   28.1900 C.2   121  PHE121      0.2290
    153  O         29.2990   26.3550   29.2850 O.2   121  PHE121     -0.2864
    154  CB        29.3410   25.1190   26.3710 C.3   121  PHE121      0.0560
    155  CG        28.7000   24.0280   25.5670 C.ar  121  PHE121     -0.0200
    156  CD1       28.5880   24.1340   24.1870 C.ar  121  PHE121     -0.0042
    157  CD2       28.1440   22.9240   26.2050 C.ar  121  PHE121     -0.0042
    158  CE1       27.9260   23.1570   23.4440 C.ar  121  PHE121     -0.0003
    159  CE2       27.4780   21.9380   25.4780 C.ar  121  PHE121     -0.0003
    160  CZ        27.3680   22.0540   24.0910 C.ar  121  PHE121     -0.0000
@<TRIPOS>BOND
     1    26    25    1
     2    25    24    1
     3    24    23    1
     4    21    20    2
     5    19    20    1
     6    19    22    1
     7    19    18    1
     8    20    27   am
     9    30    29    2
    10    29    28    1
    11    23    22    1
    12    27    28    1
    13    28    31    1
    14    13    12    2
    15    31    32    1
    16    12    11    1
    17    32    33    1
    18    33    34    1
    19   120   119    2
    20   112   111   ar
    21    11    10    1
    22    11    14    1
    23   121   119   am
    24    10     3   am
    25   119   118    1
    26   111   113   ar
    27   111   110    1
    28     1     2    1
    29    14    15    1
    30     3     2    1
    31     3     4    2
    32     2     5    1
    33   118   115    1
    34   110   107    1
    35    57    56   ar
    36    57    55   ar
    37    15    17    1
    38    15    16    1
    39    56    54   ar
    40     9     7   am
    41   114   115    1
    42   114   108   am
    43   115   116    1
    44     5     6    1
    45   107   108    1
    46   107   106    1
    47     7     6    1
    48     7     8    2
    49    55    53   ar
    50   108   109    2
    51    54    52   ar
    52   129   131   ar
    53   129   127   ar
    54   122   116   am
    55   122   123    1
    56   131   132   ar
    57   116   117    2
    58   106   103   am
    59    53    52   ar
    60    52    51    1
    61   104   103    2
    62    98    96   ar
    63    98    99   ar
    64    96    94   ar
    65   126   127    1
    66   126   123    1
    67   103   102    1
    68   100    99    1
    69    99    97   ar
    70   127   128   ar
    71    94    93    1
    72    94    95   ar
    73    93    90    1
    74    97    95   ar
    75   123   124    1
    76   132   130   ar
    77    45    44    2
    78    51    48    1
    79   133   124   am
    80   133   134    1
    81   102   101    1
    82   102   105    1
    83   137   134    1
    84   128   130   ar
    85   101    91   am
    86    73    72    2
    87    91    92    2
    88    91    90    1
    89   124   125    2
    90    44    43    1
    91    44    47   am
    92    46    43    1
    93    90    89    1
    94    48    47    1
    95    48    49    1
    96    74    72   am
    97    43    42    1
    98   134   135    1
    99    72    71    1
   100    61    60    2
   101    89    84   am
   102    58    49   am
   103    58    59    1
   104    49    50    2
   105   135   136    2
   106    60    59    1
   107    71    70    1
   108    38    37    2
   109    42    37   am
   110    84    85    2
   111    84    83    1
   112    59    62    1
   113    37    36    1
   114    70    67    1
   115    87    86    1
   116   158   160   ar
   117   158   156   ar
   118    62    63    1
   119    66    67    1
   120    83    86    1
   121    83    82    1
   122    67    68    1
   123   160   159   ar
   124    86    88    1
   125   156   155   ar
   126    81    79    1
   127    40    39    1
   128    36    35    1
   129    36    39    1
   130    63    65    1
   131    63    64    1
   132   142   143    1
   133   142   139    1
   134   138   139    1
   135    39    41    1
   136    68    69    2
   137    68    75   am
   138   143   145   ar
   139   143   144   ar
   140   159   157   ar
   141    79    80    1
   142    79    76    1
   143    75    76    1
   144   155   157   ar
   145   155   154    1
   146   139   140    1
   147   145   147   ar
   148   144   146   ar
   149   150   140   am
   150   150   151    1
   151   154   151    1
   152    76    77    1
   153   147   148   ar
   154   140   141    2
   155   146   148   ar
   156   148   149    1
   157   151   152    1
   158    77    78    2
   159   152   153    2
