@<TRIPOS>MOLECULE
tmp/1q2dA00.pdb
 139 140 0 0 0
SMALL
GASTEIGER

@<TRIPOS>ATOM
      1  N          8.0610   24.6210   33.6200 N.3    28  GLN28      -0.1231
      2  CA         8.7530   25.6610   32.8700 C.3    28  GLN28       0.1698
      3  C          8.3060   27.0800   33.2140 C.2    28  GLN28       0.2592
      4  O          8.9410   28.0560   32.7950 O.2    28  GLN28      -0.2718
      5  CB         8.5860   25.4260   31.3690 C.3    28  GLN28       0.0381
      6  CG         9.3400   24.2260   30.8490 C.3    28  GLN28       0.0905
      7  CD        10.8290   24.3260   31.1130 C.2    28  GLN28       0.2608
      8  OE1       11.4780   25.2840   30.7000 O.2    28  GLN28      -0.2717
      9  NE2       11.3770   23.3320   31.8060 N.am   28  GLN28      -0.0878
     10  N          7.2100   27.1880   33.9600 N.am   29  LEU29      -0.1966
     11  CA         6.6670   28.4740   34.3800 C.3    29  LEU29       0.1713
     12  C          6.4060   28.4520   35.8960 C.2    29  LEU29       0.2458
     13  O          5.2660   28.5860   36.3430 O.2    29  LEU29      -0.2730
     14  CB         5.3640   28.7640   33.6370 C.3    29  LEU29       0.0310
     15  CG         5.4310   28.8770   32.1080 C.3    29  LEU29       0.0022
     16  CD1        4.0260   29.0010   31.5440 C.3    29  LEU29       0.0001
     17  CD2        6.2650   30.0960   31.7090 C.3    29  LEU29       0.0001
     18  N          7.4730   28.2950   36.7060 N.am   30  PRO30      -0.2716
     19  CA         7.3630   28.2490   38.1690 C.3    30  PRO30       0.1536
     20  C          6.6710   29.4120   38.8770 C.2    30  PRO30       0.2598
     21  O          6.2260   29.2580   40.0100 O.2    30  PRO30      -0.2715
     22  CB         8.8180   28.0790   38.6270 C.3    30  PRO30       0.0310
     23  CG         9.6140   28.7270   37.5190 C.3    30  PRO30       0.0237
     24  CD         8.8870   28.2140   36.2900 C.3    30  PRO30       0.0939
     25  N          6.5760   30.5710   38.2360 N.am   31  LYS31      -0.1964
     26  CA         5.9320   31.7130   38.8790 C.3    31  LYS31       0.1728
     27  C          4.4210   31.6910   38.7050 C.2    31  LYS31       0.2616
     28  O          3.6970   32.5240   39.2540 O.2    31  LYS31      -0.2715
     29  CB         6.5060   33.0230   38.3350 C.3    31  LYS31       0.0311
     30  CG         7.9680   33.2310   38.7120 C.3    31  LYS31       0.0038
     31  CD         8.4370   34.6370   38.3880 C.3    31  LYS31       0.0206
     32  CE         9.9040   34.8100   38.7410 C.3    31  LYS31       0.1093
     33  NZ        10.2970   36.2480   38.7170 N.3    31  LYS31      -0.1314
     34  N          3.9570   30.7120   37.9430 N.am   32  MET32      -0.1977
     35  CA         2.5440   30.5540   37.6740 C.3    32  MET32       0.1605
     36  C          1.9030   29.5400   38.6190 C.2    32  MET32       0.2287
     37  O          2.4180   28.4280   38.7970 O.2    32  MET32      -0.2864
     38  CB         2.3620   30.1040   36.2290 C.3    32  MET32       0.0413
     39  CG         1.0740   30.5700   35.6120 C.3    32  MET32       0.0598
     40  SD         1.0500   32.2810   35.0470 S.3    32  MET32      -0.1393
     41  CE         2.2070   33.1010   36.1320 C.3    32  MET32       0.0692
     42  N         -2.3010   34.3380   23.6280 N.3    75  VAL75      -0.1231
     43  CA        -1.4370   33.2180   23.9670 C.3    75  VAL75       0.1692
     44  C         -1.4270   33.1540   25.4870 C.2    75  VAL75       0.2592
     45  O         -1.0200   34.1120   26.1590 O.2    75  VAL75      -0.2718
     46  CB         0.0280   33.4300   23.4830 C.3    75  VAL75       0.0266
     47  CG1        0.8950   32.2520   23.9370 C.3    75  VAL75       0.0020
     48  CG2        0.0760   33.5840   21.9560 C.3    75  VAL75       0.0020
     49  N         -1.8780   32.0350   26.0380 N.am   76  ALA76      -0.1966
     50  CA        -1.9030   31.8740   27.4850 C.3    76  ALA76       0.1728
     51  C         -0.5610   31.3240   27.9810 C.2    76  ALA76       0.2616
     52  O          0.0830   31.9260   28.8440 O.2    76  ALA76      -0.2715
     53  CB        -3.0390   30.9370   27.8840 C.3    76  ALA76       0.0334
     54  N         -0.1480   30.1780   27.4380 N.am   77  PHE77      -0.1960
     55  CA         1.1130   29.5560   27.8360 C.3    77  PHE77       0.1771
     56  C          1.8490   28.9440   26.6600 C.2    77  PHE77       0.2619
     57  O          1.2380   28.4350   25.7250 O.2    77  PHE77      -0.2715
     58  CB         0.8940   28.4400   28.8620 C.3    77  PHE77       0.0574
     59  CG         0.0280   28.8310   30.0200 C.ar   77  PHE77      -0.0200
     60  CD1       -1.2740   28.3430   30.1220 C.ar   77  PHE77      -0.0042
     61  CD2        0.5160   29.6630   31.0230 C.ar   77  PHE77      -0.0042
     62  CE1       -2.0710   28.6810   31.2060 C.ar   77  PHE77      -0.0003
     63  CE2       -0.2790   30.0080   32.1140 C.ar   77  PHE77      -0.0003
     64  CZ        -1.5710   29.5150   32.2060 C.ar   77  PHE77      -0.0000
     65  N          3.1700   28.9780   26.7360 N.am   78  LEU78      -0.1977
     66  CA         4.0210   28.4020   25.7100 C.3    78  LEU78       0.1596
     67  C          5.2100   27.7340   26.4000 C.2    78  LEU78       0.2287
     68  O          5.7890   28.2960   27.3280 O.2    78  LEU78      -0.2864
     69  CB         4.5190   29.4960   24.7560 C.3    78  LEU78       0.0297
     70  CG         5.7720   29.1720   23.9350 C.3    78  LEU78       0.0022
     71  CD1        5.4630   28.0760   22.9240 C.3    78  LEU78       0.0001
     72  CD2        6.2480   30.4200   23.2210 C.3    78  LEU78       0.0001
     73  N         -0.2700   38.5970   23.5110 N.3   111  THR111     -0.1203
     74  CA         0.2950   37.8350   24.6080 C.3   111  THR111      0.1994
     75  C          0.9570   38.8050   25.5650 C.2   111  THR111      0.2618
     76  O          1.5420   39.7980   25.1430 O.2   111  THR111     -0.2717
     77  CB         1.3530   36.8120   24.1040 C.3   111  THR111      0.1784
     78  OG1        1.7470   35.9440   25.1800 O.3   111  THR111     -0.2211
     79  CG2        2.5920   37.5400   23.5690 C.3   111  THR111      0.0376
     80  N          0.8210   38.5540   26.8590 N.am  112  TYR112     -0.1961
     81  CA         1.4930   39.3990   27.8280 C.3   112  TYR112      0.1771
     82  C          2.8850   38.7940   27.9310 C.2   112  TYR112      0.2619
     83  O          3.0570   37.5940   27.7300 O.2   112  TYR112     -0.2715
     84  CB         0.8050   39.3540   29.1970 C.3   112  TYR112      0.0574
     85  CG        -0.3040   40.3730   29.3490 C.ar  112  TYR112     -0.0198
     86  CD1       -1.6390   40.0220   29.1330 C.ar  112  TYR112     -0.0009
     87  CD2       -0.0130   41.7050   29.6540 C.ar  112  TYR112     -0.0009
     88  CE1       -2.6510   40.9660   29.2130 C.ar  112  TYR112      0.0417
     89  CE2       -1.0220   42.6620   29.7320 C.ar  112  TYR112      0.0417
     90  CZ        -2.3370   42.2860   29.5070 C.ar  112  TYR112      0.1957
     91  OH        -3.3320   43.2400   29.5300 O.3   112  TYR112     -0.2866
     92  N          3.8800   39.6190   28.2170 N.am  113  ALA113     -0.1963
     93  CA         5.2420   39.1280   28.3450 C.3   113  ALA113      0.1728
     94  C          5.9520   39.9270   29.4180 C.2   113  ALA113      0.2616
     95  O          5.5780   41.0590   29.7180 O.2   113  ALA113     -0.2715
     96  CB         5.9800   39.2700   27.0270 C.3   113  ALA113      0.0334
     97  N          6.9880   39.3430   29.9920 N.am  114  ASP114     -0.1957
     98  CA         7.7330   40.0410   31.0200 C.3   114  ASP114      0.1840
     99  C          9.1940   39.6240   30.9460 C.2   114  ASP114      0.2622
    100  O          9.5140   38.5170   30.5030 O.2   114  ASP114     -0.2715
    101  CB         7.1490   39.7070   32.3940 C.3   114  ASP114      0.1450
    102  CG         7.4330   40.7800   33.4300 C.2   114  ASP114      0.3671
    103  OD1        7.0020   40.6040   34.5920 O.co2 114  ASP114     -0.2456
    104  OD2        8.0800   41.7960   33.0860 O.co2 114  ASP114     -0.2456
    105  N         10.0750   40.5290   31.3580 N.am  115  ASN115     -0.1958
    106  CA        11.5060   40.2670   31.3730 C.3   115  ASN115      0.1819
    107  C         12.0630   39.6760   30.0790 C.2   115  ASN115      0.2621
    108  O         11.9600   40.2850   29.0180 O.2   115  ASN115     -0.2715
    109  CB        11.8310   39.3530   32.5550 C.3   115  ASN115      0.1195
    110  CG        11.5070   39.9980   33.8910 C.2   115  ASN115      0.2630
    111  OD1       11.0790   39.3250   34.8350 O.2   115  ASN115     -0.2716
    112  ND2       11.7220   41.3120   33.9840 N.am  115  ASN115     -0.0877
    113  N         12.6590   38.4920   30.1720 N.am  116  PHE116     -0.1960
    114  CA        13.2590   37.8380   29.0120 C.3   116  PHE116      0.1771
    115  C         12.2720   37.5540   27.8860 C.2   116  PHE116      0.2619
    116  O         12.6220   37.6550   26.7150 O.2   116  PHE116     -0.2715
    117  CB        13.9240   36.5190   29.4390 C.3   116  PHE116      0.0574
    118  CG        13.1060   35.2880   29.1200 C.ar  116  PHE116     -0.0200
    119  CD1       13.1710   34.6980   27.8570 C.ar  116  PHE116     -0.0042
    120  CD2       12.2430   34.7460   30.0670 C.ar  116  PHE116     -0.0042
    121  CE1       12.3900   33.5890   27.5440 C.ar  116  PHE116     -0.0003
    122  CE2       11.4590   33.6370   29.7630 C.ar  116  PHE116     -0.0003
    123  CZ        11.5320   33.0590   28.4980 C.ar  116  PHE116     -0.0000
    124  N         11.0440   37.1940   28.2460 N.am  117  ALA117     -0.1977
    125  CA        10.0240   36.8440   27.2630 C.3   117  ALA117      0.1597
    126  C          9.7410   37.9190   26.2200 C.2   117  ALA117      0.2287
    127  O          9.4400   37.6000   25.0720 O.2   117  ALA117     -0.2864
    128  CB         8.7360   36.4560   27.9740 C.3   117  ALA117      0.0319
    129  N          9.5860   37.1220   22.2980 N.3   121  PHE121     -0.1241
    130  CA         8.4660   37.3430   21.4080 C.3   121  PHE121      0.1605
    131  C          8.7790   38.3390   20.2970 C.2   121  PHE121      0.2264
    132  O          8.1660   38.2780   19.2410 O.2   121  PHE121     -0.2867
    133  CB         7.2240   37.7420   22.2040 C.3   121  PHE121      0.0534
    134  CG         6.5790   36.5810   22.9080 C.ar  121  PHE121     -0.0203
    135  CD1        6.4550   36.5630   24.2980 C.ar  121  PHE121     -0.0042
    136  CD2        6.1060   35.4930   22.1750 C.ar  121  PHE121     -0.0042
    137  CE1        5.8700   35.4680   24.9530 C.ar  121  PHE121     -0.0003
    138  CE2        5.5210   34.3940   22.8110 C.ar  121  PHE121     -0.0003
    139  CZ         5.4010   34.3810   24.2070 C.ar  121  PHE121     -0.0000
@<TRIPOS>BOND
     1   132   131    2
     2   131   130    1
     3   130   133    1
     4   130   129    1
     5    48    46    1
     6   136   138   ar
     7   136   134   ar
     8   133   134    1
     9   138   139   ar
    10   134   135   ar
    11    71    70    1
    12    72    70    1
    13    46    47    1
    14    46    43    1
    15    73    74    1
    16    79    77    1
    17    42    43    1
    18    70    69    1
    19    43    44    1
    20    77    74    1
    21    77    78    1
    22   139   137   ar
    23   135   137   ar
    24    74    75    1
    25    69    66    1
    26   127   126    2
    27    76    75    2
    28    44    49   am
    29    44    45    2
    30    75    80   am
    31    66    67    1
    32    66    65    1
    33    57    56    2
    34    49    50    1
    35   126   125    1
    36    67    68    2
    37    56    65   am
    38    56    55    1
    39   116   115    2
    40    80    81    1
    41    96    93    1
    42   125   128    1
    43   125   124    1
    44    54    55    1
    45    54    51   am
    46    50    53    1
    47    50    51    1
    48   121   119   ar
    49   121   123   ar
    50    83    82    2
    51    81    82    1
    52    81    84    1
    53    55    58    1
    54   119   118   ar
    55   115   124   am
    56   115   114    1
    57    82    92   am
    58    51    52    2
    59    92    93    1
    60    93    94    1
    61   123   122   ar
    62    58    59    1
    63   114   117    1
    64   114   113    1
    65   108   107    2
    66   118   117    1
    67   118   120   ar
    68    86    88   ar
    69    86    85   ar
    70    84    85    1
    71    88    90   ar
    72    85    87   ar
    73    94    95    2
    74    94    97   am
    75    90    91    1
    76    90    89   ar
    77    87    89   ar
    78   122   120   ar
    79    97    98    1
    80    59    60   ar
    81    59    61   ar
    82   107   113   am
    83   107   106    1
    84    60    62   ar
    85   100    99    2
    86     8     7    2
    87     6     7    1
    88     6     5    1
    89    99    98    1
    90    99   105   am
    91    98   101    1
    92    61    63   ar
    93     7     9   am
    94    62    64   ar
    95   105   106    1
    96     5     2    1
    97   106   109    1
    98    16    15    1
    99    17    15    1
   100    15    14    1
   101    63    64   ar
   102   101   102    1
   103   109   110    1
   104     4     3    2
   105     2     3    1
   106     2     1    1
   107   104   102   ar
   108     3    10   am
   109   102   103   ar
   110    14    11    1
   111   110   112   am
   112   110   111    2
   113    10    11    1
   114    11    12    1
   115    40    39    1
   116    40    41    1
   117    39    38    1
   118    12    13    2
   119    12    18   am
   120    38    35    1
   121    24    18    1
   122    24    23    1
   123    18    19    1
   124    23    22    1
   125    35    34    1
   126    35    36    1
   127    34    27   am
   128    19    22    1
   129    19    20    1
   130    25    20   am
   131    25    26    1
   132    29    30    1
   133    29    26    1
   134    31    30    1
   135    31    32    1
   136    36    37    2
   137    27    26    1
   138    27    28    2
   139    33    32    1
   140    20    21    2
