@<TRIPOS>MOLECULE
tmp/1q2eB00.pdb
 109 107 0 0 0
SMALL
GASTEIGER

@<TRIPOS>ATOM
      1  N        -12.9250    8.7270    9.8570 N.3   250  ASP250     -0.1239
      2  CA       -13.6380    9.2760   11.0080 C.3   250  ASP250      0.1674
      3  C        -12.7000   10.0390   11.9420 C.2   250  ASP250      0.2266
      4  O        -12.9810   11.1750   12.3340 O.2   250  ASP250     -0.2867
      5  CB       -14.3400    8.1500   11.7870 C.3   250  ASP250      0.1410
      6  CG       -15.2980    7.3440   10.9210 C.2   250  ASP250      0.3668
      7  OD1      -16.0650    7.9620   10.1580 O.co2 250  ASP250     -0.2456
      8  OD2      -15.2980    6.0930   11.0150 O.co2 250  ASP250     -0.2456
      9  N        -19.4930   18.4570   21.7370 N.3   258  ARG258     -0.1245
     10  CA       -19.8690   17.0520   21.6690 C.3   258  ARG258      0.1563
     11  C        -19.4910   16.3180   22.9600 C.2   258  ARG258      0.2260
     12  O        -20.1760   15.3810   23.3700 O.2   258  ARG258     -0.2867
     13  CB       -19.1830   16.3860   20.4700 C.3   258  ARG258      0.0307
     14  CG       -19.7180   14.9960   20.1400 C.3   258  ARG258      0.0489
     15  CD       -18.9200   14.2930   19.0380 C.3   258  ARG258      0.2205
     16  NE       -19.5520   13.0190   18.6850 N.pl3 258  ARG258     -0.0865
     17  CZ       -18.9260   11.9800   18.1380 C.cat 258  ARG258      0.5346
     18  NH1      -17.6270   12.0370   17.8620 N.pl3 258  ARG258      0.1354
     19  NH2      -19.6030   10.8660   17.8830 N.pl3 258  ARG258      0.1354
     20  N        -18.5510    6.1520   22.2580 N.3   329  PHE329     -0.1227
     21  CA       -19.2880    6.6470   21.0930 C.3   329  PHE329      0.1736
     22  C        -19.4270    5.6050   19.9890 C.2   329  PHE329      0.2596
     23  O        -20.3990    5.6200   19.2330 O.2   329  PHE329     -0.2718
     24  CB       -18.6180    7.8920   20.4980 C.3   329  PHE329      0.0547
     25  CG       -18.6820    9.1120   21.3780 C.ar  329  PHE329     -0.0202
     26  CD1      -19.4850    9.1390   22.5170 C.ar  329  PHE329     -0.0042
     27  CD2      -17.9680   10.2590   21.0340 C.ar  329  PHE329     -0.0042
     28  CE1      -19.5750   10.2920   23.3020 C.ar  329  PHE329     -0.0003
     29  CE2      -18.0510   11.4140   21.8110 C.ar  329  PHE329     -0.0003
     30  CZ       -18.8570   11.4310   22.9440 C.ar  329  PHE329     -0.0000
     31  N        -18.4490    4.7150   19.8790 N.am  330  GLY330     -0.1942
     32  CA       -18.5130    3.6880   18.8550 C.3   330  GLY330      0.2014
     33  C        -17.4900    3.8510   17.7450 C.2   330  GLY330      0.2639
     34  O        -16.8830    4.9170   17.5870 O.2   330  GLY330     -0.2714
     35  N        -17.2950    2.7870   16.9730 N.am  331  GLY331     -0.1954
     36  CA       -16.3410    2.8350   15.8780 C.3   331  GLY331      0.1869
     37  C        -15.0180    2.1640   16.1940 C.2   331  GLY331      0.2309
     38  O        -14.6430    2.0250   17.3620 O.2   331  GLY331     -0.2863
     39  N        -22.5150   16.4760   11.0590 N.3   367  TRP367     -0.1241
     40  CA       -21.5660   15.7550   11.9010 C.3   367  TRP367      0.1605
     41  C        -20.7350   16.7210   12.7460 C.2   367  TRP367      0.2264
     42  O        -20.1350   16.3290   13.7460 O.2   367  TRP367     -0.2867
     43  CB       -20.6230   14.9190   11.0350 C.3   367  TRP367      0.0550
     44  CG       -19.9070   15.7440   10.0090 C.ar  367  TRP367      0.0003
     45  CD1      -20.3440   16.0560    8.7540 C.ar  367  TRP367      0.0946
     46  CD2      -18.6760   16.4540   10.1930 C.ar  367  TRP367      0.0152
     47  NE1      -19.4620   16.9190    8.1450 N.ar  367  TRP367     -0.2442
     48  CE2      -18.4300   17.1810    9.0070 C.ar  367  TRP367      0.0810
     49  CE3      -17.7580   16.5490   11.2480 C.ar  367  TRP367      0.0012
     50  CZ2      -17.3000   17.9940    8.8450 C.ar  367  TRP367      0.0191
     51  CZ3      -16.6320   17.3590   11.0860 C.ar  367  TRP367      0.0001
     52  CH2      -16.4160   18.0690    9.8930 C.ar  367  TRP367      0.0015
     53  N        -26.2250   14.1030   14.8500 N.3   372  TYR372     -0.1228
     54  CA       -25.9700   13.2210   13.7190 C.3   372  TYR372      0.1721
     55  C        -25.6000   11.7960   14.1160 C.2   372  TYR372      0.2437
     56  O        -24.7830   11.5910   15.0120 O.2   372  TYR372     -0.2733
     57  CB       -24.8280   13.8100   12.8890 C.3   372  TYR372      0.0547
     58  CG       -24.5820   13.1050   11.5800 C.ar  372  TYR372     -0.0200
     59  CD1      -25.4620   13.2620   10.5120 C.ar  372  TYR372     -0.0009
     60  CD2      -23.4920   12.2510   11.4200 C.ar  372  TYR372     -0.0009
     61  CE1      -25.2630   12.5840    9.3150 C.ar  372  TYR372      0.0417
     62  CE2      -23.2830   11.5670   10.2280 C.ar  372  TYR372      0.0417
     63  CZ       -24.1740   11.7380    9.1820 C.ar  372  TYR372      0.1957
     64  OH       -23.9790   11.0610    8.0040 O.3   372  TYR372     -0.2866
     65  N        -26.2280   10.7900   13.4810 N.am  373  PRO373     -0.2729
     66  CA       -27.2570   10.8970   12.4400 C.3   373  PRO373      0.1401
     67  C        -28.4900   11.5990   13.0020 C.2   373  PRO373      0.2269
     68  O        -28.7470   11.5530   14.2050 O.2   373  PRO373     -0.2865
     69  CB       -27.5090    9.4330   12.0740 C.3   373  PRO373      0.0296
     70  CG       -26.1360    8.8180   12.3000 C.3   373  PRO373      0.0237
     71  CD       -25.8860    9.3730   13.6850 C.3   373  PRO373      0.0939
     72  N        -30.9580   10.1320   15.7120 N.3   376  GLU376     -0.1245
     73  CA       -30.5280    9.9230   17.0930 C.3   376  GLU376      0.1567
     74  C        -31.0060   11.0640   17.9840 C.2   376  GLU376      0.2260
     75  O        -31.3530   12.1410   17.4960 O.2   376  GLU376     -0.2867
     76  CB       -29.0010    9.8350   17.1790 C.3   376  GLU376      0.0388
     77  CG       -28.3630    8.6940   16.3960 C.3   376  GLU376      0.1160
     78  CD       -28.8840    7.3290   16.8060 C.2   376  GLU376      0.3649
     79  OE1      -28.9530    7.0580   18.0210 O.co2 376  GLU376     -0.2457
     80  OE2      -29.2100    6.5170   15.9140 O.co2 376  GLU376     -0.2457
     81  N        -28.2640    9.3760   22.8320 N.3   380  THR380     -0.1204
     82  CA       -27.2630    8.5840   22.1310 C.3   380  THR380      0.1979
     83  C        -25.9180    9.2540   22.3850 C.2   380  THR380      0.2460
     84  O        -25.7200   10.4150   22.0300 O.2   380  THR380     -0.2732
     85  CB       -27.5240    8.5560   20.6190 C.3   380  THR380      0.1783
     86  OG1      -28.7880    7.9300   20.3650 O.3   380  THR380     -0.2211
     87  CG2      -26.4290    7.7840   19.9080 C.3   380  THR380      0.0376
     88  N        -24.9740    8.5350   23.0080 N.am  381  PRO381     -0.2717
     89  CA       -23.6620    9.1200   23.2860 C.3   381  PRO381      0.1535
     90  C        -22.9810    9.7130   22.0550 C.2   381  PRO381      0.2599
     91  O        -22.8260    9.0410   21.0330 O.2   381  PRO381     -0.2715
     92  CB       -22.8900    7.9400   23.8740 C.3   381  PRO381      0.0310
     93  CG       -23.9980    7.1940   24.6140 C.3   381  PRO381      0.0237
     94  CD       -25.0140    7.1430   23.4890 C.3   381  PRO381      0.0939
     95  N        -22.5930   10.9800   22.1690 N.am  382  GLY382     -0.1955
     96  CA       -21.9130   11.6630   21.0830 C.3   382  GLY382      0.1869
     97  C        -22.7500   12.0710   19.8840 C.2   382  GLY382      0.2309
     98  O        -22.2100   12.5860   18.9080 O.2   382  GLY382     -0.2863
     99  N        -23.5060   17.2880   18.3900 N.3   385  ARG385     -0.1245
    100  CA       -22.2040   17.9360   18.2330 C.3   385  ARG385      0.1563
    101  C        -22.2800   19.4640   18.2060 C.2   385  ARG385      0.2260
    102  O        -21.2530   20.1450   18.2530 O.2   385  ARG385     -0.2867
    103  CB       -21.5150   17.4440   16.9500 C.3   385  ARG385      0.0307
    104  CG       -21.3850   15.9160   16.8130 C.3   385  ARG385      0.0489
    105  CD       -22.5440   15.3300   16.0020 C.3   385  ARG385      0.2205
    106  NE       -22.5220   13.8660   15.9200 N.pl3 385  ARG385     -0.0865
    107  CZ       -21.5970   13.1370   15.2990 C.cat 385  ARG385      0.5346
    108  NH1      -20.5780   13.7110   14.6730 N.pl3 385  ARG385      0.1354
    109  NH2      -21.6960   11.8130   15.3030 N.pl3 385  ARG385      0.1354
@<TRIPOS>BOND
     1    64    63    1
     2    47    45   ar
     3    47    48   ar
     4    45    44   ar
     5    50    48   ar
     6    50    52   ar
     7    48    46   ar
     8    63    61   ar
     9    63    62   ar
    10    61    59   ar
    11     1     2    1
    12    52    51   ar
    13    44    46   ar
    14    44    43    1
    15     7     6   ar
    16    46    49   ar
    17    62    60   ar
    18    59    58   ar
    19     6     8   ar
    20     6     5    1
    21     2     5    1
    22     2     3    1
    23    43    40    1
    24    39    40    1
    25    51    49   ar
    26    60    58   ar
    27    58    57    1
    28    40    41    1
    29     3     4    2
    30    69    70    1
    31    69    66    1
    32    70    71    1
    33    66    67    1
    34    66    65    1
    35    41    42    2
    36    57    54    1
    37    67    68    2
    38    65    71    1
    39    65    55   am
    40    54    55    1
    41    54    53    1
    42    55    56    2
    43   108   107    1
    44   107   109    1
    45   107   106    2
    46    72    73    1
    47    36    37    1
    48    36    35    1
    49    80    78   ar
    50   106   105    1
    51   105   104    1
    52    37    38    2
    53    77    78    1
    54    77    76    1
    55    78    79   ar
    56   104   103    1
    57   103   100    1
    58    35    33   am
    59    73    76    1
    60    73    74    1
    61    75    74    2
    62    34    33    2
    63    33    32    1
    64    18    17    1
    65    19    17    1
    66    17    16    2
    67   101   100    1
    68   101   102    2
    69   100    99    1
    70    16    15    1
    71    32    31    1
    72    98    97    2
    73    15    14    1
    74    23    22    2
    75    31    22   am
    76    97    96    1
    77    87    85    1
    78    22    21    1
    79    14    13    1
    80    86    85    1
    81    13    10    1
    82    24    21    1
    83    24    25    1
    84    85    82    1
    85    91    90    2
    86    27    25   ar
    87    27    29   ar
    88    96    95    1
    89    21    20    1
    90    25    26   ar
    91    10     9    1
    92    10    11    1
    93    29    30   ar
    94    84    83    2
    95    90    95   am
    96    90    89    1
    97    82    83    1
    98    82    81    1
    99    83    88   am
   100    26    28   ar
   101    30    28   ar
   102    11    12    2
   103    88    89    1
   104    88    94    1
   105    89    92    1
   106    94    93    1
   107    92    93    1
