@<TRIPOS>MOLECULE
tmp/1q2oA02.pdb
 172 169 0 0 0
SMALL
GASTEIGER

@<TRIPOS>ATOM
      1  N         17.6180   11.3230   45.6150 N.3    40  VAL40      -0.1245
      2  CA        17.3560   11.5100   44.1910 C.3    40  VAL40       0.1561
      3  C         18.4690   10.9450   43.3210 C.2    40  VAL40       0.2260
      4  O         18.2100   10.1960   42.3800 O.2    40  VAL40      -0.2867
      5  CB        17.1670   13.0110   43.8700 C.3    40  VAL40       0.0252
      6  CG1       16.9190   13.2090   42.3650 C.3    40  VAL40       0.0019
      7  CG2       15.9870   13.5690   44.6910 C.3    40  VAL40       0.0019
      8  N         17.5210   19.3990   29.1560 N.3   171  SER171     -0.1202
      9  CA        17.0260   18.2850   29.9810 C.3   171  SER171      0.2020
     10  C         15.7500   17.6720   29.3830 C.2   171  SER171      0.2618
     11  O         15.4390   16.5070   29.6280 O.2   171  SER171     -0.2717
     12  CB        16.7720   18.7570   31.4200 C.3   171  SER171      0.2103
     13  OG        15.8380   19.8180   31.4460 O.3   171  SER171     -0.2182
     14  N         15.0110   18.4730   28.6190 N.am  172  GLN172     -0.1979
     15  CA        13.8090   18.0220   27.9130 C.3   172  GLN172      0.1601
     16  C         13.8550   18.7150   26.5600 C.2   172  GLN172      0.2287
     17  O         14.4590   19.7870   26.4390 O.2   172  GLN172     -0.2864
     18  CB        12.5200   18.4350   28.6410 C.3   172  GLN172      0.0394
     19  CG        12.1140   17.5260   29.7940 C.3   172  GLN172      0.0908
     20  CD        10.8320   17.9790   30.4790 C.2   172  GLN172      0.2608
     21  OE1        9.7730   18.0660   29.8570 O.2   172  GLN172     -0.2717
     22  NE2       10.9260   18.2620   31.7680 N.am  172  GLN172     -0.0878
     23  N         11.2430   23.0520   26.9350 N.3   175  ARG175     -0.1245
     24  CA        11.3520   23.6150   28.2810 C.3   175  ARG175      0.1563
     25  C         11.2660   25.1290   28.1750 C.2   175  ARG175      0.2260
     26  O         11.6040   25.7010   27.1390 O.2   175  ARG175     -0.2867
     27  CB        12.6910   23.2670   28.9270 C.3   175  ARG175      0.0307
     28  CG        12.9590   21.7900   29.0950 C.3   175  ARG175      0.0489
     29  CD        13.4900   21.5090   30.4800 C.3   175  ARG175      0.2205
     30  NE        12.4270   21.5390   31.4770 N.pl3 175  ARG175     -0.0865
     31  CZ        12.6190   21.3740   32.7830 C.cat 175  ARG175      0.5346
     32  NH1       13.8390   21.1760   33.2660 N.pl3 175  ARG175      0.1354
     33  NH2       11.5840   21.3840   33.6080 N.pl3 175  ARG175      0.1354
     34  N          6.0340   15.9450   27.0020 N.3   259  PRO259     -0.2102
     35  CA         7.0970   15.7790   27.9950 C.3   259  PRO259      0.1504
     36  C          8.1250   14.8980   27.2740 C.2   259  PRO259      0.2576
     37  O          7.8170   13.7650   26.8950 O.2   259  PRO259     -0.2718
     38  CB         6.3880   15.0530   29.1340 C.3   259  PRO259      0.0282
     39  CG         5.4140   14.1820   28.4150 C.3   259  PRO259      0.0208
     40  CD         4.8670   15.1050   27.3310 C.3   259  PRO259      0.0893
     41  N          9.3300   15.4110   27.0580 N.am  260  ALA260     -0.1966
     42  CA        10.3390   14.6350   26.3310 C.3   260  ALA260      0.1728
     43  C         11.7330   14.7080   26.9430 C.2   260  ALA260      0.2616
     44  O         12.5500   15.5410   26.5590 O.2   260  ALA260     -0.2715
     45  CB        10.3900   15.1040   24.8850 C.3   260  ALA260      0.0334
     46  N         12.0050   13.8080   27.8790 N.am  261  VAL261     -0.1977
     47  CA        13.2880   13.7620   28.5570 C.3   261  VAL261      0.1596
     48  C         14.4150   13.5330   27.5690 C.2   261  VAL261      0.2287
     49  O         14.3850   12.5760   26.7860 O.2   261  VAL261     -0.2864
     50  CB        13.2990   12.6430   29.6040 C.3   261  VAL261      0.0276
     51  CG1       14.6520   12.5780   30.2860 C.3   261  VAL261      0.0022
     52  CG2       12.2100   12.9010   30.6300 C.3   261  VAL261      0.0022
     53  N         18.0520   14.0730   28.5990 N.3   263  ASN263     -0.1240
     54  CA        19.3960   14.0060   29.1730 C.3   263  ASN263      0.1653
     55  C         19.7450   12.7100   29.8830 C.2   263  ASN263      0.2266
     56  O         20.7520   12.6340   30.5960 O.2   263  ASN263     -0.2867
     57  CB        19.6470   15.1910   30.1190 C.3   263  ASN263      0.1155
     58  CG        18.7350   15.1880   31.3290 C.2   263  ASN263      0.2627
     59  OD1       18.8870   16.0260   32.2310 O.2   263  ASN263     -0.2716
     60  ND2       17.7850   14.2660   31.3650 N.am  263  ASN263     -0.0877
     61  N         13.2320   10.3920   24.8490 N.3   278  PHE278     -0.1227
     62  CA        11.9980    9.6220   24.8430 C.3   278  PHE278      0.1736
     63  C         10.8390   10.5050   25.3170 C.2   278  PHE278      0.2596
     64  O         11.0430   11.5010   26.0170 O.2   278  PHE278     -0.2718
     65  CB        12.1540    8.3840   25.7510 C.3   278  PHE278      0.0547
     66  CG        12.4340    8.7050   27.2140 C.ar  278  PHE278     -0.0202
     67  CD1       11.4070    9.0940   28.0690 C.ar  278  PHE278     -0.0042
     68  CD2       13.7170    8.5940   27.7320 C.ar  278  PHE278     -0.0042
     69  CE1       11.6560    9.3690   29.4270 C.ar  278  PHE278     -0.0003
     70  CE2       13.9800    8.8640   29.0900 C.ar  278  PHE278     -0.0003
     71  CZ        12.9530    9.2500   29.9320 C.ar  278  PHE278     -0.0000
     72  N          9.6220   10.1550   24.9120 N.am  279  SER279     -0.1938
     73  CA         8.4580   10.9260   25.3120 C.3   279  SER279      0.2055
     74  C          7.2130   10.0580   25.3550 C.2   279  SER279      0.2644
     75  O          7.0910    9.0980   24.5990 O.2   279  SER279     -0.2714
     76  CB         8.2270   12.0870   24.3380 C.3   279  SER279      0.2130
     77  OG         7.9310   11.6100   23.0360 O.3   279  SER279     -0.2179
     78  N          6.3070   10.3950   26.2690 N.am  280  GLY280     -0.1939
     79  CA         5.0360    9.6920   26.3880 C.3   280  GLY280      0.2014
     80  C          4.0050   10.7990   26.4400 C.2   280  GLY280      0.2639
     81  O          3.7530   11.4630   25.4320 O.2   280  GLY280     -0.2714
     82  N          3.3880   10.9830   27.6050 N.am  281  TRP281     -0.1959
     83  CA         2.4420   12.0730   27.8210 C.3   281  TRP281      0.1771
     84  C          2.4230   12.3870   29.3080 C.2   281  TRP281      0.2619
     85  O          2.8500   11.5880   30.1400 O.2   281  TRP281     -0.2715
     86  CB         1.0290   11.7570   27.2930 C.3   281  TRP281      0.0590
     87  CG         0.4100   10.4770   27.7620 C.ar  281  TRP281      0.0006
     88  CD1       -0.2030   10.2430   28.9660 C.ar  281  TRP281      0.0946
     89  CD2        0.2840    9.2690   27.0030 C.ar  281  TRP281      0.0152
     90  NE1       -0.7090    8.9620   28.9950 N.ar  281  TRP281     -0.2442
     91  CE2       -0.4240    8.3440   27.8040 C.ar  281  TRP281      0.0810
     92  CE3        0.6990    8.8790   25.7190 C.ar  281  TRP281      0.0012
     93  CZ2       -0.7280    7.0500   27.3650 C.ar  281  TRP281      0.0191
     94  CZ3        0.3960    7.5940   25.2830 C.ar  281  TRP281      0.0001
     95  CH2       -0.3130    6.6940   26.1060 C.ar  281  TRP281      0.0015
     96  N          1.9340   13.5660   29.6430 N.am  282  TYR282     -0.1974
     97  CA         1.9150   13.9960   31.0290 C.3   282  TYR282      0.1639
     98  C          0.9050   13.3970   31.9940 C.2   282  TYR282      0.2290
     99  O         -0.2030   13.0390   31.6080 O.2   282  TYR282     -0.2864
    100  CB         1.6980   15.5020   31.0720 C.3   282  TYR282      0.0560
    101  CG         2.9550   16.3100   31.0080 C.ar  282  TYR282     -0.0198
    102  CD1        3.8880   16.2410   32.0300 C.ar  282  TYR282     -0.0009
    103  CD2        3.1800   17.1990   29.9570 C.ar  282  TYR282     -0.0009
    104  CE1        5.0220   17.0460   32.0230 C.ar  282  TYR282      0.0417
    105  CE2        4.3010   18.0140   29.9310 C.ar  282  TYR282      0.0417
    106  CZ         5.2090   17.9330   30.9690 C.ar  282  TYR282      0.1957
    107  OH         6.2990   18.7660   30.9910 O.3   282  TYR282     -0.2866
    108  N          2.3160   16.4130   37.4400 N.3   286  GLU286     -0.1245
    109  CA         3.6590   16.8680   37.0740 C.3   286  GLU286      0.1567
    110  C          3.6330   18.3710   36.8090 C.2   286  GLU286      0.2260
    111  O          4.5350   19.1190   37.2200 O.2   286  GLU286     -0.2867
    112  CB         4.1390   16.1600   35.8130 C.3   286  GLU286      0.0388
    113  CG         4.3900   14.6710   35.9820 C.3   286  GLU286      0.1160
    114  CD         4.9340   14.0470   34.7160 C.2   286  GLU286      0.3649
    115  OE1        4.1430   13.4590   33.9490 O.co2 286  GLU286     -0.2457
    116  OE2        6.1580   14.1610   34.4820 O.co2 286  GLU286     -0.2457
    117  N          3.9110   19.9890   40.6570 N.3   290  ARG290     -0.1231
    118  CA         5.3460   20.2470   40.7350 C.3   290  ARG290      0.1694
    119  C          5.8180   21.4700   39.9470 C.2   290  ARG290      0.2592
    120  O          6.3670   22.4190   40.5290 O.2   290  ARG290     -0.2718
    121  CB         6.1250   18.9970   40.3140 C.3   290  ARG290      0.0321
    122  CG         5.7500   17.7170   41.1070 C.3   290  ARG290      0.0489
    123  CD         5.9710   17.8610   42.6200 C.3   290  ARG290      0.2205
    124  NE         7.3010   18.3810   42.9210 N.pl3 290  ARG290     -0.0865
    125  CZ         8.4350   17.6970   42.8230 C.cat 290  ARG290      0.5346
    126  NH1        8.4320   16.4230   42.4430 N.pl3 290  ARG290      0.1354
    127  NH2        9.5890   18.3120   43.0510 N.pl3 290  ARG290      0.1354
    128  N          5.5810   21.4800   38.6390 N.am  291  ASP291     -0.1974
    129  CA         6.0300   22.6100   37.8240 C.3   291  ASP291      0.1709
    130  C          5.4490   23.9580   38.2530 C.2   291  ASP291      0.2293
    131  O          6.1710   24.9510   38.3430 O.2   291  ASP291     -0.2864
    132  CB         5.6890   22.3860   36.3530 C.3   291  ASP291      0.1436
    133  CG         6.4070   21.1970   35.7570 C.2   291  ASP291      0.3671
    134  OD1        7.5510   20.8950   36.1060 O.co2 291  ASP291     -0.2456
    135  OD2        5.7500   20.5300   34.8330 O.co2 291  ASP291     -0.2456
    136  N         10.0080   26.4860   41.8000 N.3   297  ARG297     -0.1245
    137  CA         9.6480   26.4730   40.3840 C.3   297  ARG297      0.1563
    138  C          8.7620   27.6920   40.1400 C.2   297  ARG297      0.2260
    139  O          9.0910   28.7720   40.6330 O.2   297  ARG297     -0.2867
    140  CB         8.9380   25.1650   40.0090 C.3   297  ARG297      0.0307
    141  CG         9.8320   23.9170   40.1570 C.3   297  ARG297      0.0489
    142  CD        11.0010   23.9160   39.1550 C.3   297  ARG297      0.2205
    143  NE        10.5270   23.9240   37.7730 N.pl3 297  ARG297     -0.0865
    144  CZ         9.9240   22.8990   37.1770 C.cat 297  ARG297      0.5346
    145  NH1        9.7150   21.7690   37.8420 N.pl3 297  ARG297      0.1354
    146  NH2        9.5280   23.0090   35.9130 N.pl3 297  ARG297      0.1354
    147  N          8.4620    7.9980   44.3800 N.3   372  TRP372     -0.1241
    148  CA         8.2140    8.6040   43.0730 C.3   372  TRP372      0.1605
    149  C          6.8850    8.1910   42.4370 C.2   372  TRP372      0.2264
    150  O          6.2980    8.9570   41.6580 O.2   372  TRP372     -0.2867
    151  CB         9.3500    8.2560   42.1040 C.3   372  TRP372      0.0550
    152  CG        10.5370    9.1570   42.2190 C.ar  372  TRP372      0.0003
    153  CD1       11.3390    9.3290   43.3040 C.ar  372  TRP372      0.0946
    154  CD2       11.0350   10.0320   41.2020 C.ar  372  TRP372      0.0152
    155  NE1       12.3100   10.2670   43.0290 N.ar  372  TRP372     -0.2442
    156  CE2       12.1440   10.7140   41.7450 C.ar  372  TRP372      0.0810
    157  CE3       10.6500   10.3060   39.8850 C.ar  372  TRP372      0.0012
    158  CZ2       12.8740   11.6590   41.0160 C.ar  372  TRP372      0.0191
    159  CZ3       11.3780   11.2510   39.1550 C.ar  372  TRP372      0.0001
    160  CH2       12.4770   11.9140   39.7290 C.ar  372  TRP372      0.0015
    161  N         20.9050    8.3030   34.9670 N.3   400  TYR400     -0.1241
    162  CA        21.2630    9.7050   34.9050 C.3   400  TYR400      0.1605
    163  C         22.7190    9.7230   34.4550 C.2   400  TYR400      0.2264
    164  O         23.4370    8.7360   34.6330 O.2   400  TYR400     -0.2867
    165  CB        21.1720   10.3630   36.2870 C.3   400  TYR400      0.0534
    166  CG        19.7830   10.4060   36.8740 C.ar  400  TYR400     -0.0201
    167  CD1       18.7060   10.8680   36.1250 C.ar  400  TYR400     -0.0009
    168  CD2       19.5540   10.0220   38.1940 C.ar  400  TYR400     -0.0009
    169  CE1       17.4250   10.9520   36.6720 C.ar  400  TYR400      0.0417
    170  CE2       18.2850   10.1000   38.7630 C.ar  400  TYR400      0.0417
    171  CZ        17.2300   10.5680   37.9900 C.ar  400  TYR400      0.1957
    172  OH        15.9730   10.6670   38.5490 O.3   400  TYR400     -0.2866
@<TRIPOS>BOND
     1    77    76    1
     2    76    73    1
     3    75    74    2
     4    62    61    1
     5    62    63    1
     6    62    65    1
     7    45    42    1
     8    72    73    1
     9    72    63   am
    10    94    92   ar
    11    94    95   ar
    12    73    74    1
    13    63    64    2
    14    74    78   am
    15    81    80    2
    16    92    89   ar
    17    65    66    1
    18    95    93   ar
    19    78    79    1
    20    42    43    1
    21    42    41    1
    22    79    80    1
    23    17    16    2
    24    80    82   am
    25    44    43    2
    26    16    15    1
    27    49    48    2
    28    37    36    2
    29    23    24    1
    30    43    46   am
    31    34    40    1
    32    34    35    1
    33    89    87   ar
    34    89    91   ar
    35    41    36   am
    36    26    25    2
    37    66    68   ar
    38    66    67   ar
    39    36    35    1
    40    86    87    1
    41    86    83    1
    42    40    39    1
    43    93    91   ar
    44    48    47    1
    45    82    83    1
    46    68    70   ar
    47    87    88   ar
    48    91    90   ar
    49    83    84    1
    50    46    47    1
    51    15    14    1
    52    15    18    1
    53    35    38    1
    54    67    69   ar
    55    25    24    1
    56    24    27    1
    57    39    38    1
    58    47    50    1
    59    53    54    1
    60    14    10   am
    61    18    19    1
    62    27    28    1
    63    88    90   ar
    64    70    71   ar
    65    28    29    1
    66     8     9    1
    67    54    55    1
    68    54    57    1
    69    84    96   am
    70    84    85    2
    71    10    11    2
    72    10     9    1
    73    69    71   ar
    74    50    51    1
    75    50    52    1
    76    96    97    1
    77    19    20    1
    78    21    20    2
    79    55    56    2
    80   105   103   ar
    81   105   106   ar
    82   103   101   ar
    83     9    12    1
    84    57    58    1
    85    20    22   am
    86    29    30    1
    87   106   107    1
    88   106   104   ar
    89   101   100    1
    90   101   102   ar
    91    97   100    1
    92    97    98    1
    93    58    60   am
    94    58    59    2
    95    12    13    1
    96    30    31    2
    97    99    98    2
    98   104   102   ar
    99    31    32    1
   100    31    33    1
   101   115   114   ar
   102   163   164    2
   103   163   162    1
   104   116   114   ar
   105   114   113    1
   106   135   133   ar
   107   162   161    1
   108   162   165    1
   109   133   134   ar
   110   133   132    1
   111   112   113    1
   112   112   109    1
   113   146   144    1
   114   167   169   ar
   115   167   166   ar
   116   165   166    1
   117   132   129    1
   118   169   171   ar
   119   110   109    1
   120   110   111    2
   121   166   168   ar
   122   109   108    1
   123   144   143    2
   124   144   145    1
   125   143   142    1
   126   129   130    1
   127   129   128    1
   128   171   172    1
   129   171   170   ar
   130   168   170   ar
   131   130   131    2
   132   128   119   am
   133   159   160   ar
   134   159   157   ar
   135   142   141    1
   136   160   158   ar
   137   157   154   ar
   138   119   120    2
   139   119   118    1
   140   140   141    1
   141   140   137    1
   142   138   137    1
   143   138   139    2
   144   121   118    1
   145   121   122    1
   146   137   136    1
   147   117   118    1
   148   158   156   ar
   149   122   123    1
   150   154   156   ar
   151   154   152   ar
   152   150   149    2
   153   156   155   ar
   154   151   152    1
   155   151   148    1
   156   152   153   ar
   157     6     5    1
   158     4     3    2
   159   149   148    1
   160   126   125    1
   161   123   124    1
   162   125   124    2
   163   125   127    1
   164   155   153   ar
   165   148   147    1
   166     3     2    1
   167     5     2    1
   168     5     7    1
   169     2     1    1
