@<TRIPOS>MOLECULE
tmp/1q2pA02.pdb
 100 93 0 0 0
SMALL
GASTEIGER

@<TRIPOS>ATOM
      1  N          8.5490   32.5910    8.5600 N.3    45  SER45      -0.1217
      2  CA         8.1260   31.4460    7.7610 C.3    45  SER45       0.1889
      3  C          8.5910   30.0780    8.2530 C.2    45  SER45       0.2288
      4  O          8.1190   29.0530    7.7560 O.2    45  SER45      -0.2866
      5  CB         8.5410   31.6300    6.2890 C.3    45  SER45       0.2089
      6  OG         7.8500   32.8030    5.6460 O.3    45  SER45      -0.2183
      7  N         -0.6090   38.1500    0.4460 N.3    79  ASP79      -0.1225
      8  CA         0.6510   38.4310   -0.2340 C.3    79  ASP79       0.1805
      9  C          1.5600   37.2190   -0.4330 C.2    79  ASP79       0.2597
     10  O          1.8800   36.5070    0.5100 O.2    79  ASP79      -0.2718
     11  CB         1.4030   39.5370    0.5220 C.3    79  ASP79       0.1424
     12  CG         2.6760   39.9790   -0.1890 C.2    79  ASP79       0.3668
     13  OD1        2.6680   40.0860   -1.4320 O.co2  79  ASP79      -0.2456
     14  OD2        3.6830   40.2380    0.4970 O.co2  79  ASP79      -0.2456
     15  N          1.9640   37.0080   -1.6840 N.am   80  TYR80      -0.1976
     16  CA         2.8490   35.9170   -2.1010 C.3    80  TYR80       0.1639
     17  C          2.2370   34.5180   -2.0210 C.2    80  TYR80       0.2290
     18  O          2.2860   33.8550   -0.9790 O.2    80  TYR80      -0.2864
     19  CB         4.1600   35.9430   -1.3100 C.3    80  TYR80       0.0560
     20  CG         5.1890   34.9790   -1.8560 C.ar   80  TYR80      -0.0198
     21  CD1        5.6870   35.1180   -3.1530 C.ar   80  TYR80      -0.0009
     22  CD2        5.6430   33.9070   -1.0870 C.ar   80  TYR80      -0.0009
     23  CE1        6.6110   34.2060   -3.6750 C.ar   80  TYR80       0.0417
     24  CE2        6.5670   32.9920   -1.6000 C.ar   80  TYR80       0.0417
     25  CZ         7.0450   33.1460   -2.8950 C.ar   80  TYR80       0.1957
     26  OH         7.9380   32.2240   -3.4060 O.3    80  TYR80      -0.2866
     27  N          7.1570   28.4620    0.3240 N.3   105  SER105     -0.1217
     28  CA         6.7630   29.4590    1.3220 C.3   105  SER105      0.1889
     29  C          5.5140   30.2260    0.8880 C.2   105  SER105      0.2288
     30  O          5.3740   31.4290    1.1310 O.2   105  SER105     -0.2866
     31  CB         7.8990   30.4460    1.6150 C.3   105  SER105      0.2089
     32  OG         7.7000   31.0560    2.8890 O.3   105  SER105     -0.2183
     33  N          2.2050   31.7630    1.1210 N.3   107  ASN107     -0.1240
     34  CA         1.4970   32.2590    2.3010 C.3   107  ASN107      0.1653
     35  C          0.0190   31.9060    2.4190 C.2   107  ASN107      0.2266
     36  O         -0.4750   31.6890    3.5310 O.2   107  ASN107     -0.2867
     37  CB         1.6830   33.7720    2.4210 C.3   107  ASN107      0.1155
     38  CG         3.1120   34.1440    2.7410 C.2   107  ASN107      0.2627
     39  OD1        3.7510   33.5120    3.5850 O.2   107  ASN107     -0.2716
     40  ND2        3.6220   35.1640    2.0790 N.am  107  ASN107     -0.0877
     41  N         -0.4860   34.7790    8.1860 N.3   141  GLU141     -0.1231
     42  CA         0.3960   35.4010    7.2080 C.3   141  GLU141      0.1699
     43  C         -0.4300   36.5640    6.6610 C.2   141  GLU141      0.2592
     44  O         -1.6410   36.4300    6.4800 O.2   141  GLU141     -0.2718
     45  CB         0.7320   34.4260    6.0710 C.3   141  GLU141      0.0402
     46  CG         1.6860   33.2960    6.4590 C.3   141  GLU141      0.1161
     47  CD         3.1170   33.7720    6.6630 C.2   141  GLU141      0.3649
     48  OE1        3.3390   35.0010    6.7560 O.co2 141  GLU141     -0.2457
     49  OE2        4.0240   32.9130    6.7370 O.co2 141  GLU141     -0.2457
     50  N          0.2080   37.7020    6.4150 N.am  142  THR142     -0.1953
     51  CA         1.6340   37.8670    6.6440 C.3   142  THR142      0.1897
     52  C          1.9440   38.7320    7.8780 C.2   142  THR142      0.2313
     53  O          3.0990   39.1100    8.0940 O.2   142  THR142     -0.2863
     54  CB         2.3120   38.5010    5.3970 C.3   142  THR142      0.1794
     55  OG1        1.7060   39.7720    5.1230 O.3   142  THR142     -0.2208
     56  CG2        2.1430   37.6020    4.1720 C.3   142  THR142      0.0378
     57  N          4.8930   38.2250   10.6830 N.3   145  ASN145     -0.1240
     58  CA         6.2960   38.5740   10.4420 C.3   145  ASN145      0.1653
     59  C          6.6970   39.9750   10.9190 C.2   145  ASN145      0.2266
     60  O          7.8310   40.4030   10.6970 O.2   145  ASN145     -0.2867
     61  CB         6.5890   38.4870    8.9430 C.3   145  ASN145      0.1155
     62  CG         6.2820   37.1270    8.3690 C.2   145  ASN145      0.2627
     63  OD1        6.9330   36.1450    8.7060 O.2   145  ASN145     -0.2716
     64  ND2        5.2800   37.0590    7.4960 N.am  145  ASN145     -0.0877
     65  N         13.2210   27.5740   -2.0930 N.3   191  VAL191     -0.1245
     66  CA        13.5820   28.9420   -1.7500 C.3   191  VAL191      0.1561
     67  C         15.0530   29.1080   -1.3590 C.2   191  VAL191      0.2260
     68  O         15.7220   30.0220   -1.8300 O.2   191  VAL191     -0.2867
     69  CB        12.6990   29.4730   -0.5980 C.3   191  VAL191      0.0252
     70  CG1       13.1940   30.8330   -0.1390 C.3   191  VAL191      0.0019
     71  CG2       11.2630   29.5820   -1.0610 C.3   191  VAL191      0.0019
     72  N         14.1270   25.2660    6.0470 N.3   209  LYS209     -0.1231
     73  CA        13.0170   26.1990    5.8980 C.3   209  LYS209      0.1693
     74  C         13.5920   27.4910    6.4410 C.2   209  LYS209      0.2593
     75  O         14.0870   27.5200    7.5690 O.2   209  LYS209     -0.2718
     76  CB        11.7880   25.8380    6.7230 C.3   209  LYS209      0.0285
     77  CG        10.6570   26.8450    6.4660 C.3   209  LYS209      0.0035
     78  CD        10.1840   26.7580    5.0040 C.3   209  LYS209      0.0206
     79  CE         9.2940   27.9300    4.5560 C.3   209  LYS209      0.1093
     80  NZ        10.0750   29.1050    4.0520 N.3   209  LYS209     -0.1314
     81  N         13.5520   28.5480    5.6350 N.am  210  THR210     -0.1939
     82  CA        14.0770   29.8390    6.0590 C.3   210  THR210      0.2028
     83  C         12.9380   30.8230    6.2590 C.2   210  THR210      0.2643
     84  O         11.7930   30.5570    5.8770 O.2   210  THR210     -0.2714
     85  CB        15.0570   30.4360    5.0190 C.3   210  THR210      0.1808
     86  OG1       14.3770   30.6340    3.7750 O.3   210  THR210     -0.2208
     87  CG2       16.2480   29.5010    4.8070 C.3   210  THR210      0.0379
     88  N         13.2640   31.9620    6.8600 N.am  211  GLY211     -0.1939
     89  CA        12.2670   32.9820    7.0920 C.3   211  GLY211      0.2014
     90  C         12.9010   34.3540    7.1900 C.2   211  GLY211      0.2639
     91  O         14.1080   34.4790    7.4150 O.2   211  GLY211     -0.2714
     92  N         12.0840   35.3860    7.0140 N.am  212  ALA212     -0.1963
     93  CA        12.5560   36.7680    7.0910 C.3   212  ALA212      0.1728
     94  C         11.4260   37.6330    7.6320 C.2   212  ALA212      0.2616
     95  O         10.2600   37.3080    7.4480 O.2   212  ALA212     -0.2715
     96  CB        12.9820   37.2570    5.7080 C.3   212  ALA212      0.0334
     97  N         11.7790   38.7240    8.3100 N.am  213  GLY213     -0.1955
     98  CA        10.7790   39.6250    8.8660 C.3   213  GLY213      0.1869
     99  C         11.2560   41.0700    8.9340 C.2   213  GLY213      0.2309
    100  O         12.3150   41.4250    8.4040 O.2   213  GLY213     -0.2863
@<TRIPOS>BOND
     1    23    21   ar
     2    23    25   ar
     3    26    25    1
     4    21    20   ar
     5    25    24   ar
     6    16    17    1
     7    16    15    1
     8    16    19    1
     9    65    66    1
    10    17    18    2
    11    20    19    1
    12    20    22   ar
    13    68    67    2
    14    66    67    1
    15    66    69    1
    16    15     9   am
    17    24    22   ar
    18    13    12   ar
    19    71    69    1
    20    69    70    1
    21     9     8    1
    22     9    10    2
    23     8     7    1
    24     8    11    1
    25    12    14   ar
    26    12    11    1
    27    27    28    1
    28    29    30    2
    29    29    28    1
    30    33    34    1
    31    28    31    1
    32    31    32    1
    33    40    38   am
    34    34    35    1
    35    34    37    1
    36    35    36    2
    37    37    38    1
    38    38    39    2
    39    86    85    1
    40    80    79    1
    41    56    54    1
    42    79    78    1
    43    87    85    1
    44    78    77    1
    45    85    82    1
    46    55    54    1
    47    54    51    1
    48    81    82    1
    49    81    74   am
    50     6     5    1
    51    96    93    1
    52    84    83    2
    53    73    72    1
    54    73    74    1
    55    73    76    1
    56    82    83    1
    57    45    46    1
    58    45    42    1
    59    83    88   am
    60     5     2    1
    61    50    51    1
    62    50    43   am
    63    74    75    2
    64    46    47    1
    65    77    76    1
    66    44    43    2
    67    51    52    1
    68    43    42    1
    69    47    49   ar
    70    47    48   ar
    71    88    89    1
    72    92    93    1
    73    92    90   am
    74    93    94    1
    75    89    90    1
    76    90    91    2
    77    42    41    1
    78    95    94    2
    79    64    62   am
    80    94    97   am
    81     4     3    2
    82     2     3    1
    83     2     1    1
    84    52    53    2
    85    97    98    1
    86    62    63    2
    87    62    61    1
    88   100    99    2
    89    98    99    1
    90    61    58    1
    91    58    57    1
    92    58    59    1
    93    60    59    2
