@<TRIPOS>MOLECULE
tmp/1q2qA00.pdb
 121 114 0 0 0
SMALL
GASTEIGER

@<TRIPOS>ATOM
      1  N         17.2930   16.7300    9.8650 N.3    63  SER63      -0.1217
      2  CA        18.0180   15.8120    9.0160 C.3    63  SER63       0.1889
      3  C         18.3820   14.5120    9.7050 C.2    63  SER63       0.2288
      4  O         18.7850   13.5840    8.9970 O.2    63  SER63      -0.2866
      5  CB        19.2940   16.4310    8.4680 C.3    63  SER63       0.2089
      6  OG        18.9640   17.5680    7.6710 O.3    63  SER63      -0.2183
      7  N         17.0400   11.3640    8.0900 N.3    66  LYS66      -0.1245
      8  CA        17.7120   10.6200    7.0270 C.3    66  LYS66       0.1561
      9  C         18.2280    9.2770    7.5000 C.2    66  LYS66       0.2260
     10  O         18.4530    8.3680    6.6940 O.2    66  LYS66      -0.2867
     11  CB        18.8960   11.4460    6.5160 C.3    66  LYS66       0.0271
     12  CG        18.5090   12.6810    5.7070 C.3    66  LYS66       0.0035
     13  CD        19.7390   13.4030    5.1520 C.3    66  LYS66       0.0206
     14  CE        19.3080   14.5500    4.2470 C.3    66  LYS66       0.1093
     15  NZ        19.0070   15.7560    5.0800 N.3    66  LYS66      -0.1314
     16  N         21.3540   20.9440   -2.5900 N.3   118  LEU118     -0.1231
     17  CA        20.9080   20.7700   -1.2190 C.3   118  LEU118      0.1693
     18  C         19.4140   20.6280   -1.1080 C.2   118  LEU118      0.2591
     19  O         18.8870   19.7310   -0.4230 O.2   118  LEU118     -0.2718
     20  CB        21.3870   21.9520   -0.3870 C.3   118  LEU118      0.0284
     21  CG        21.0500   21.9690    1.0890 C.3   118  LEU118      0.0019
     22  CD1       21.6750   20.7610    1.7780 C.3   118  LEU118      0.0001
     23  CD2       21.5710   23.2280    1.7310 C.3   118  LEU118      0.0001
     24  N         18.7000   21.5170   -1.7910 N.am  119  GLN119     -0.1979
     25  CA        17.2620   21.5740   -1.6820 C.3   119  GLN119      0.1601
     26  C         16.5880   21.2300   -3.0140 C.2   119  GLN119      0.2287
     27  O         17.0630   21.6090   -4.0660 O.2   119  GLN119     -0.2864
     28  CB        16.7620   22.9420   -1.1950 C.3   119  GLN119      0.0394
     29  CG        17.1590   23.3150    0.2230 C.3   119  GLN119      0.0908
     30  CD        16.8430   22.2970    1.2940 C.2   119  GLN119      0.2608
     31  OE1       16.0360   21.3800    1.1210 O.2   119  GLN119     -0.2717
     32  NE2       17.4620   22.4120    2.4710 N.am  119  GLN119     -0.0878
     33  N         26.2470   17.0250    0.1500 N.3   149  TYR149     -0.1241
     34  CA        25.0970   16.7390    1.0050 C.3   149  TYR149      0.1605
     35  C         23.8360   17.3510    0.4100 C.2   149  TYR149      0.2264
     36  O         23.8510   18.5290    0.0740 O.2   149  TYR149     -0.2867
     37  CB        25.3860   17.2750    2.3940 C.3   149  TYR149      0.0534
     38  CG        24.3270   16.9430    3.4250 C.ar  149  TYR149     -0.0201
     39  CD1       24.4080   15.7810    4.1910 C.ar  149  TYR149     -0.0009
     40  CD2       23.2540   17.7660    3.6470 C.ar  149  TYR149     -0.0009
     41  CE1       23.4200   15.4960    5.1270 C.ar  149  TYR149      0.0417
     42  CE2       22.2830   17.4830    4.5880 C.ar  149  TYR149      0.0417
     43  CZ        22.3640   16.3410    5.3350 C.ar  149  TYR149      0.1957
     44  OH        21.4080   16.0400    6.2790 O.3   149  TYR149     -0.2866
     45  N         19.3500   17.0820    0.1280 N.3   151  ASN151     -0.1240
     46  CA        18.0320   16.5070    0.2950 C.3   151  ASN151      0.1653
     47  C         17.4850   16.0300   -1.0380 C.2   151  ASN151      0.2266
     48  O         16.7050   15.0820   -1.1400 O.2   151  ASN151     -0.2867
     49  CB        17.0700   17.5320    0.8460 C.3   151  ASN151      0.1155
     50  CG        17.3850   18.0600    2.2270 C.2   151  ASN151      0.2627
     51  OD1       17.9980   17.3990    3.0420 O.2   151  ASN151     -0.2716
     52  ND2       16.9260   19.2930    2.4740 N.am  151  ASN151     -0.0877
     53  N          7.6740   23.5120   12.0980 N.3   210  ALA210     -0.1231
     54  CA         7.7780   23.1580   10.6880 C.3   210  ALA210      0.1694
     55  C          6.4100   23.1490   10.0120 C.2   210  ALA210      0.2591
     56  O          5.4080   22.8150   10.6370 O.2   210  ALA210     -0.2718
     57  CB         8.4580   21.8110   10.5810 C.3   210  ALA210      0.0304
     58  N          6.4010   23.5530    8.7410 N.am  211  VAL211     -0.1980
     59  CA         5.1820   23.5110    7.9310 C.3   211  VAL211      0.1595
     60  C          4.8350   22.0210    7.7380 C.2   211  VAL211      0.2287
     61  O          5.7380   21.1670    7.7630 O.2   211  VAL211     -0.2864
     62  CB         5.2650   24.2380    6.5830 C.3   211  VAL211      0.0276
     63  CG1        5.6010   25.7240    6.7760 C.3   211  VAL211      0.0022
     64  CG2        6.2520   23.5810    5.6280 C.3   211  VAL211      0.0022
     65  N         13.9290   15.4430    6.1190 N.3   219  TYR219     -0.1241
     66  CA        13.9590   16.1950    7.3770 C.3   219  TYR219      0.1605
     67  C         12.6600   16.2230    8.1750 C.2   219  TYR219      0.2264
     68  O         12.5590   17.0710    9.0690 O.2   219  TYR219     -0.2867
     69  CB        14.3760   17.6460    7.0920 C.3   219  TYR219      0.0534
     70  CG        13.5940   18.3380    6.0110 C.ar  219  TYR219     -0.0201
     71  CD1       12.2970   18.8210    6.2070 C.ar  219  TYR219     -0.0009
     72  CD2       14.1670   18.5100    4.7590 C.ar  219  TYR219     -0.0009
     73  CE1       11.5750   19.4540    5.2130 C.ar  219  TYR219      0.0417
     74  CE2       13.4470   19.1420    3.7620 C.ar  219  TYR219      0.0417
     75  CZ        12.1720   19.6060    3.9790 C.ar  219  TYR219      0.1957
     76  OH        11.4920   20.2420    2.9660 O.3   219  TYR219     -0.2866
     77  N         28.6670   21.1030    4.1590 N.3   291  LEU291     -0.1245
     78  CA        27.8740   21.3450    2.9560 C.3   291  LEU291      0.1561
     79  C         28.7170   21.4930    1.7020 C.2   291  LEU291      0.2260
     80  O         28.2040   21.7430    0.6160 O.2   291  LEU291     -0.2867
     81  CB        27.0310   22.5870    3.2230 C.3   291  LEU291      0.0270
     82  CG        25.9350   22.4960    4.2840 C.3   291  LEU291      0.0019
     83  CD1       25.1580   23.7970    4.3140 C.3   291  LEU291      0.0001
     84  CD2       24.9880   21.3350    4.0290 C.3   291  LEU291      0.0001
     85  N         24.8220   11.6680   13.4780 N.3   313  LYS313     -0.1231
     86  CA        24.0930   12.5450   12.5830 C.3   313  LYS313      0.1693
     87  C         23.5630   13.7890   13.3130 C.2   313  LYS313      0.2593
     88  O         22.9620   13.6650   14.3970 O.2   313  LYS313     -0.2718
     89  CB        22.9480   11.7660   11.9510 C.3   313  LYS313      0.0285
     90  CG        22.1990   12.5150   10.8500 C.3   313  LYS313      0.0035
     91  CD        22.9930   12.6150    9.5680 C.3   313  LYS313      0.0206
     92  CE        22.3380   13.4350    8.4850 C.3   313  LYS313      0.1093
     93  NZ        22.5890   14.9130    8.6130 N.3   313  LYS313     -0.1314
     94  N         23.7790   14.9430   12.6800 N.am  314  THR314     -0.1939
     95  CA        23.1740   16.1910   13.1200 C.3   314  THR314      0.2028
     96  C         21.8650   16.4080   12.3780 C.2   314  THR314      0.2643
     97  O         21.6720   15.9610   11.2550 O.2   314  THR314     -0.2714
     98  CB        24.0820   17.3940   12.7690 C.3   314  THR314      0.1808
     99  OG1       24.4270   17.3570   11.3800 O.3   314  THR314     -0.2208
    100  CG2       25.4140   17.3720   13.5010 C.3   314  THR314      0.0379
    101  N         20.9590   17.1100   13.0570 N.am  315  GLY315     -0.1939
    102  CA        19.7200   17.4830   12.4030 C.3   315  GLY315      0.2014
    103  C         19.1050   18.7540   12.9590 C.2   315  GLY315      0.2640
    104  O         19.0850   18.9180   14.1900 O.2   315  GLY315     -0.2714
    105  N         18.5770   19.5960   12.0740 N.am  316  SER316     -0.1935
    106  CA        17.9490   20.8330   12.5030 C.3   316  SER316      0.2055
    107  C         16.7330   21.1540   11.6410 C.2   316  SER316      0.2644
    108  O         16.6180   20.6760   10.5060 O.2   316  SER316     -0.2714
    109  CB        18.9140   22.0250   12.3300 C.3   316  SER316      0.2130
    110  OG        20.1890   21.7480   12.9460 O.3   316  SER316     -0.2179
    111  N         15.9020   22.0100   12.2160 N.am  317  THR317     -0.1936
    112  CA        14.8450   22.6910   11.4840 C.3   317  THR317      0.2028
    113  C         14.9130   24.1740   11.8460 C.2   317  THR317      0.2642
    114  O         15.8960   24.5960   12.5010 O.2   317  THR317     -0.2714
    115  CB        13.4460   22.1300   11.7390 C.3   317  THR317      0.1808
    116  OG1       13.1340   22.3740   13.1250 O.3   317  THR317     -0.2208
    117  CG2       13.3390   20.6320   11.4740 C.3   317  THR317      0.0379
    118  N         13.9530   24.9730   11.4510 N.am  318  GLY318     -0.1954
    119  CA        14.0190   26.3880   11.7720 C.3   318  GLY318      0.1869
    120  C         14.1090   26.5960   13.2710 C.2   318  GLY318      0.2309
    121  O         14.8330   27.4990   13.7070 O.2   318  GLY318     -0.2863
@<TRIPOS>BOND
     1    27    26    2
     2    26    25    1
     3    16    17    1
     4    24    25    1
     5    24    18   am
     6    25    28    1
     7    17    18    1
     8    17    20    1
     9    28    29    1
    10    48    47    2
    11    18    19    2
    12    47    46    1
    13    20    21    1
    14    36    35    2
    15    45    46    1
    16    33    34    1
    17    29    30    1
    18    46    49    1
    19    35    34    1
    20    80    79    2
    21    49    50    1
    22    34    37    1
    23    21    23    1
    24    21    22    1
    25    31    30    2
    26    30    32   am
    27    79    78    1
    28    50    52   am
    29    50    51    2
    30    37    38    1
    31    78    81    1
    32    78    77    1
    33    76    75    1
    34    81    82    1
    35    38    40   ar
    36    38    39   ar
    37    40    42   ar
    38    74    75   ar
    39    74    72   ar
    40    75    73   ar
    41    84    82    1
    42    39    41   ar
    43    14    15    1
    44    14    13    1
    45    82    83    1
    46    42    43   ar
    47    72    70   ar
    48    41    43   ar
    49    13    12    1
    50    73    71   ar
    51    43    44    1
    52    64    62    1
    53    12    11    1
    54    70    71   ar
    55    70    69    1
    56    65    66    1
    57    11     8    1
    58    62    63    1
    59    62    59    1
    60    10     9    2
    61     8     9    1
    62     8     7    1
    63    69    66    1
    64    66    67    1
    65     6     5    1
    66    60    61    2
    67    60    59    1
    68    59    58    1
    69    67    68    2
    70     5     2    1
    71    92    93    1
    72    92    91    1
    73    58    55   am
    74     4     3    2
    75     2     3    1
    76     2     1    1
    77    91    90    1
    78    55    56    2
    79    55    54    1
    80   108   107    2
    81    57    54    1
    82    54    53    1
    83    90    89    1
    84    97    96    2
    85    99    98    1
    86   118   119    1
    87   118   113   am
    88   117   115    1
    89   112   115    1
    90   112   113    1
    91   112   111    1
    92   107   111   am
    93   107   106    1
    94   115   116    1
    95   119   120    1
    96   113   114    2
    97    89    86    1
    98   105   106    1
    99   105   103   am
   100   109   106    1
   101   109   110    1
   102    96   101   am
   103    96    95    1
   104   102   103    1
   105   102   101    1
   106    86    87    1
   107    86    85    1
   108    94    95    1
   109    94    87   am
   110    98    95    1
   111    98   100    1
   112   103   104    2
   113   120   121    2
   114    87    88    2
