@<TRIPOS>MOLECULE
tmp/1q2rC00.pdb
 97 89 0 0 0
SMALL
GASTEIGER

@<TRIPOS>ATOM
      1  N         58.1010  -16.9410   36.5340 N.3    92  ASP92      -0.1225
      2  CA        56.9120  -16.1410   36.7670 C.3    92  ASP92       0.1805
      3  C         55.9330  -16.5050   35.6650 C.2    92  ASP92       0.2598
      4  O         56.3290  -16.7510   34.5370 O.2    92  ASP92      -0.2718
      5  CB        57.2360  -14.6530   36.7220 C.3    92  ASP92       0.1424
      6  CG        56.0730  -13.8000   37.1870 C.2    92  ASP92       0.3668
      7  OD1       55.0060  -14.3750   37.5260 O.co2  92  ASP92      -0.2456
      8  OD2       56.2240  -12.5540   37.2160 O.co2  92  ASP92      -0.2456
      9  N         54.6510  -16.5330   35.9960 N.am   93  SER93      -0.1952
     10  CA        53.6100  -16.9100   35.0450 C.3    93  SER93       0.1924
     11  C         53.4830  -16.0280   33.8120 C.2    93  SER93       0.2314
     12  O         53.1190  -16.5080   32.7430 O.2    93  SER93      -0.2863
     13  CB        52.2650  -16.9630   35.7640 C.3    93  SER93       0.2116
     14  OG        52.0010  -15.7220   36.3810 O.3    93  SER93      -0.2180
     15  N         51.9480  -13.0530   34.3510 N.3    95  GLY95      -0.1210
     16  CA        50.8960  -12.1730   34.8230 C.3    95  GLY95       0.1956
     17  C         51.3580  -10.7460   35.0380 C.2    95  GLY95       0.2611
     18  O         50.5350   -9.8390   35.1620 O.2    95  GLY95      -0.2717
     19  N         52.6710  -10.5420   35.0920 N.am   96  TYR96      -0.1976
     20  CA        53.2180   -9.2080   35.2750 C.3    96  TYR96       0.1639
     21  C         53.1600   -8.4890   33.9430 C.2    96  TYR96       0.2290
     22  O         52.8590   -7.3020   33.8780 O.2    96  TYR96      -0.2864
     23  CB        54.6700   -9.2680   35.7450 C.3    96  TYR96       0.0560
     24  CG        55.2700   -7.9000   35.9900 C.ar   96  TYR96      -0.0198
     25  CD1       54.8420   -7.1150   37.0590 C.ar   96  TYR96      -0.0009
     26  CD2       56.2220   -7.3640   35.1200 C.ar   96  TYR96      -0.0009
     27  CE1       55.3400   -5.8300   37.2530 C.ar   96  TYR96       0.0417
     28  CE2       56.7270   -6.0800   35.3040 C.ar   96  TYR96       0.0417
     29  CZ        56.2800   -5.3170   36.3730 C.ar   96  TYR96       0.1957
     30  OH        56.7630   -4.0410   36.5670 O.3    96  TYR96      -0.2866
     31  N         48.1110  -15.2400   36.6080 N.3   146  ASP146     -0.1239
     32  CA        47.3010  -14.2080   37.2330 C.3   146  ASP146      0.1674
     33  C         47.3290  -12.9150   36.4430 C.2   146  ASP146      0.2266
     34  O         47.9410  -12.8410   35.3860 O.2   146  ASP146     -0.2867
     35  CB        47.8170  -13.9490   38.6440 C.3   146  ASP146      0.1410
     36  CG        49.1630  -13.2540   38.6550 C.2   146  ASP146      0.3668
     37  OD1       50.0630  -13.6900   37.9220 O.co2 146  ASP146     -0.2456
     38  OD2       49.3290  -12.2680   39.4000 O.co2 146  ASP146     -0.2456
     39  N         48.3340   -9.1480   37.2270 N.3   148  CYS148     -0.1235
     40  CA        48.8420   -8.1600   38.1650 C.3   148  CYS148      0.1677
     41  C         47.9870   -6.9130   37.9560 C.2   148  CYS148      0.2270
     42  O         48.2260   -6.1420   37.0290 O.2   148  CYS148     -0.2867
     43  CB        50.3080   -7.8460   37.8610 C.3   148  CYS148      0.0956
     44  SG        51.0030   -6.5100   38.8520 S.3   148  CYS148     -0.0801
     45  N         49.0730  -16.6660   43.5370 N.3   191  ILE191     -0.1245
     46  CA        49.3210  -15.2560   43.7390 C.3   191  ILE191      0.1561
     47  C         48.0800  -14.5190   44.2290 C.2   191  ILE191      0.2260
     48  O         47.0010  -14.6240   43.6550 O.2   191  ILE191     -0.2867
     49  CB        49.8070  -14.6010   42.4440 C.3   191  ILE191      0.0252
     50  CG1       50.9690  -15.4090   41.8570 C.3   191  ILE191      0.0019
     51  CG2       50.2380  -13.1680   42.7220 C.3   191  ILE191      0.0019
     52  CD1       51.3970  -14.9620   40.4680 C.3   191  ILE191      0.0001
     53  N         45.8290  -11.2240   44.9030 N.3   193  GLN193     -0.1245
     54  CA        45.5890   -9.9340   44.2950 C.3   193  GLN193      0.1566
     55  C         44.6180   -9.1470   45.1810 C.2   193  GLN193      0.2260
     56  O         44.5210   -9.4010   46.3840 O.2   193  GLN193     -0.2867
     57  CB        45.0150  -10.1210   42.8950 C.3   193  GLN193      0.0367
     58  CG        45.9700  -10.7810   41.9260 C.3   193  GLN193      0.0905
     59  CD        47.2690  -10.0180   41.7800 C.2   193  GLN193      0.2608
     60  OE1       47.2920   -8.7900   41.8730 O.2   193  GLN193     -0.2717
     61  NE2       48.3590  -10.7380   41.5330 N.am  193  GLN193     -0.0878
     62  N         50.8420  -10.4670   45.0080 N.3   219  GLY219     -0.1210
     63  CA        51.0910   -9.6790   43.8190 C.3   219  GLY219      0.1956
     64  C         50.3260   -8.3770   43.8830 C.2   219  GLY219      0.2612
     65  O         49.7290   -8.0560   44.9070 O.2   219  GLY219     -0.2717
     66  N         50.3460   -7.6200   42.7940 N.am  220  GLY220     -0.1942
     67  CA        49.6370   -6.3550   42.7700 C.3   220  GLY220      0.2014
     68  C         50.2490   -5.2030   43.5570 C.2   220  GLY220      0.2638
     69  O         49.7230   -4.0960   43.5140 O.2   220  GLY220     -0.2714
     70  N         51.3390   -5.4320   44.2770 N.am  221  LEU221     -0.1977
     71  CA        51.9390   -4.3400   45.0260 C.3   221  LEU221      0.1596
     72  C         53.2070   -3.8230   44.3690 C.2   221  LEU221      0.2287
     73  O         53.6820   -4.3960   43.3890 O.2   221  LEU221     -0.2864
     74  CB        52.2300   -4.7630   46.4640 C.3   221  LEU221      0.0297
     75  CG        50.9920   -5.1190   47.2870 C.3   221  LEU221      0.0022
     76  CD1       51.4060   -5.2780   48.7410 C.3   221  LEU221      0.0001
     77  CD2       49.9300   -4.0310   47.1540 C.3   221  LEU221      0.0001
     78  N         56.2280  -10.4670   45.2110 N.3   250  MET250     -0.1230
     79  CA        56.7110  -10.2920   43.8540 C.3   250  MET250      0.1702
     80  C         57.1540   -8.9090   43.4260 C.2   250  MET250      0.2592
     81  O         56.5220   -7.9100   43.7420 O.2   250  MET250     -0.2718
     82  CB        55.6530  -10.7900   42.8780 C.3   250  MET250      0.0401
     83  CG        55.1540  -12.1720   43.2030 C.3   250  MET250      0.0596
     84  SD        54.1240  -12.8420   41.9150 S.3   250  MET250     -0.1393
     85  CE        55.3750  -13.7440   40.9680 C.3   250  MET250      0.0692
     86  N         58.2460   -8.8800   42.6720 N.am  251  GLY251     -0.1957
     87  CA        58.7850   -7.6450   42.1520 C.3   251  GLY251      0.1869
     88  C         59.1190   -6.6050   43.1900 C.2   251  GLY251      0.2309
     89  O         58.7800   -5.4380   43.0190 O.2   251  GLY251     -0.2863
     90  N         61.9970  -10.9680   44.4750 N.3   270  ASP270     -0.1239
     91  CA        62.5570  -10.9990   43.1240 C.3   270  ASP270      0.1674
     92  C         62.3890   -9.5670   42.6080 C.2   270  ASP270      0.2266
     93  O         61.3460   -8.9450   42.8030 O.2   270  ASP270     -0.2867
     94  CB        61.8340  -12.0130   42.2130 C.3   270  ASP270      0.1410
     95  CG        60.6040  -11.4370   41.5210 C.2   270  ASP270      0.3668
     96  OD1       59.5820  -11.2710   42.2000 O.co2 270  ASP270     -0.2456
     97  OD2       60.6900  -11.1640   40.3000 O.co2 270  ASP270     -0.2456
@<TRIPOS>BOND
     1    12    11    2
     2    11    10    1
     3    22    21    2
     4    21    20    1
     5    15    16    1
     6     4     3    2
     7    16    17    1
     8    17    19   am
     9    17    18    2
    10    10    13    1
    11    10     9    1
    12    19    20    1
    13    26    28   ar
    14    26    24   ar
    15    20    23    1
    16    28    29   ar
    17    34    33    2
    18     3     9   am
    19     3     2    1
    20    23    24    1
    21    13    14    1
    22    24    25   ar
    23    29    30    1
    24    29    27   ar
    25    33    32    1
    26     1     2    1
    27    31    32    1
    28     5     2    1
    29     5     6    1
    30    42    41    2
    31    25    27   ar
    32     6     8   ar
    33     6     7   ar
    34    39    40    1
    35    32    35    1
    36    43    40    1
    37    43    44    1
    38    37    36   ar
    39    41    40    1
    40    35    36    1
    41    36    38   ar
    42    97    95   ar
    43    52    50    1
    44    85    84    1
    45    95    96   ar
    46    95    94    1
    47    61    59   am
    48    59    60    2
    49    59    58    1
    50    50    49    1
    51    84    83    1
    52    58    57    1
    53    87    86    1
    54    87    88    1
    55    94    91    1
    56    49    51    1
    57    49    46    1
    58    92    93    2
    59    92    91    1
    60    86    80   am
    61    67    66    1
    62    67    68    1
    63    66    64   am
    64    82    83    1
    65    82    79    1
    66    57    54    1
    67    89    88    2
    68    91    90    1
    69    73    72    2
    70    80    81    2
    71    80    79    1
    72    69    68    2
    73    45    46    1
    74    68    70   am
    75    48    47    2
    76    46    47    1
    77    63    64    1
    78    63    62    1
    79    79    78    1
    80    64    65    2
    81    70    71    1
    82    54    53    1
    83    54    55    1
    84    72    71    1
    85    71    74    1
    86    55    56    2
    87    74    75    1
    88    77    75    1
    89    75    76    1
