@<TRIPOS>MOLECULE
tmp/1q33A00.pdb
 120 111 0 0 0
SMALL
GASTEIGER

@<TRIPOS>ATOM
      1  N         26.8740   26.4350   43.9440 N.3   112  ALA112     -0.1245
      2  CA        27.5420   25.9560   42.7420 C.3   112  ALA112      0.1562
      3  C         28.9700   25.5960   43.1530 C.2   112  ALA112      0.2260
      4  O         29.4070   25.8900   44.2660 O.2   112  ALA112     -0.2867
      5  CB        27.5390   27.0310   41.6640 C.3   112  ALA112      0.0290
      6  N         33.0720   25.3000   41.3830 N.3   114  ASP114     -0.1239
      7  CA        33.9040   25.6350   40.2280 C.3   114  ASP114      0.1674
      8  C         35.2670   24.9680   40.3880 C.2   114  ASP114      0.2266
      9  O         36.1210   25.4390   41.1270 O.2   114  ASP114     -0.2867
     10  CB        34.0940   27.1650   40.1350 C.3   114  ASP114      0.1410
     11  CG        32.8790   27.8840   39.5570 C.2   114  ASP114      0.3668
     12  OD1       32.5250   27.5990   38.3970 O.co2 114  ASP114     -0.2456
     13  OD2       32.2810   28.7400   40.2600 O.co2 114  ASP114     -0.2456
     14  N         30.8050   28.1690   26.7960 N.3   145  ARG145     -0.1245
     15  CA        29.4080   27.7700   26.6420 C.3   145  ARG145      0.1563
     16  C         28.8080   28.3750   25.3830 C.2   145  ARG145      0.2260
     17  O         29.1980   29.4620   24.9670 O.2   145  ARG145     -0.2867
     18  CB        28.5960   28.2080   27.8640 C.3   145  ARG145      0.0307
     19  CG        28.9700   27.4660   29.1390 C.3   145  ARG145      0.0489
     20  CD        28.2020   27.9730   30.3550 C.3   145  ARG145      0.2205
     21  NE        28.7240   27.4050   31.6000 N.pl3 145  ARG145     -0.0865
     22  CZ        28.7700   26.1030   31.8690 C.cat 145  ARG145      0.5346
     23  NH1       28.3240   25.2200   30.9820 N.pl3 145  ARG145      0.1354
     24  NH2       29.2680   25.6790   33.0230 N.pl3 145  ARG145      0.1354
     25  N         35.4910   28.7640   33.9150 N.3   153  ILE153     -0.1245
     26  CA        35.8060   27.6080   34.7020 C.3   153  ILE153      0.1561
     27  C         34.6260   26.6880   34.5390 C.2   153  ILE153      0.2260
     28  O         33.4800   27.1440   34.5990 O.2   153  ILE153     -0.2867
     29  CB        36.0220   27.9900   36.1850 C.3   153  ILE153      0.0252
     30  CG1       37.1160   29.0530   36.2910 C.3   153  ILE153      0.0019
     31  CG2       36.3750   26.7770   37.0230 C.3   153  ILE153      0.0019
     32  CD1       36.7110   30.2600   37.1190 C.3   153  ILE153      0.0001
     33  N         32.1310   24.8220   35.8540 N.3   155  GLY155     -0.1210
     34  CA        31.3630   24.4800   37.0460 C.3   155  GLY155      0.1956
     35  C         29.8540   24.4160   36.8710 C.2   155  GLY155      0.2612
     36  O         29.3210   24.6410   35.7850 O.2   155  GLY155     -0.2717
     37  N         29.1530   24.1070   37.9540 N.am  156  GLY156     -0.1956
     38  CA        27.7090   24.0300   37.8690 C.3   156  GLY156      0.1869
     39  C         27.0750   23.8820   39.2360 C.2   156  GLY156      0.2309
     40  O         27.7660   23.8130   40.2500 O.2   156  GLY156     -0.2863
     41  N         28.4050   35.3070   45.0490 N.3   209  VAL209     -0.1245
     42  CA        28.9120   35.6830   43.7390 C.3   209  VAL209      0.1561
     43  C         27.8960   36.6570   43.1390 C.2   209  VAL209      0.2260
     44  O         26.6960   36.3680   43.1020 O.2   209  VAL209     -0.2867
     45  CB        29.1050   34.4550   42.7940 C.3   209  VAL209      0.0252
     46  CG1       28.0780   33.3840   43.0960 C.3   209  VAL209      0.0019
     47  CG2       29.0100   34.9050   41.3320 C.3   209  VAL209      0.0019
     48  N         25.8050   37.8760   40.7080 N.3   211  ASP211     -0.1239
     49  CA        25.2480   37.2100   39.5350 C.3   211  ASP211      0.1674
     50  C         23.9360   37.9120   39.1420 C.2   211  ASP211      0.2266
     51  O         23.1670   38.3220   40.0130 O.2   211  ASP211     -0.2867
     52  CB        25.0180   35.7420   39.9350 C.3   211  ASP211      0.1410
     53  CG        24.5990   34.8580   38.7820 C.2   211  ASP211      0.3668
     54  OD1       23.4700   35.0010   38.2850 O.co2 211  ASP211     -0.2456
     55  OD2       25.4120   34.0050   38.3760 O.co2 211  ASP211     -0.2456
     56  N         21.2560   36.7560   38.3020 N.3   213  ARG213     -0.1245
     57  CA        20.0890   35.9970   38.7190 C.3   213  ARG213      0.1563
     58  C         19.7440   36.3000   40.1700 C.2   213  ARG213      0.2260
     59  O         18.6790   35.9210   40.6340 O.2   213  ARG213     -0.2867
     60  CB        20.3330   34.4890   38.5960 C.3   213  ARG213      0.0307
     61  CG        20.3800   33.9760   37.1450 C.3   213  ARG213      0.0489
     62  CD        20.8780   32.5210   37.1300 C.3   213  ARG213      0.2205
     63  NE        22.2970   32.4390   37.4600 N.pl3 213  ARG213     -0.0865
     64  CZ        22.9850   31.3000   37.5580 C.cat 213  ARG213      0.5346
     65  NH1       22.3850   30.1360   37.3500 N.pl3 213  ARG213      0.1354
     66  NH2       24.2710   31.3230   37.8750 N.pl3 213  ARG213      0.1354
     67  N         25.9670   31.2440   45.1630 N.3   220  GLU220     -0.1231
     68  CA        27.1990   31.1290   45.9380 C.3   220  GLU220      0.1699
     69  C         28.0050   30.0530   45.2240 C.2   220  GLU220      0.2592
     70  O         27.4370   29.1820   44.5550 O.2   220  GLU220     -0.2718
     71  CB        26.9380   30.7040   47.3850 C.3   220  GLU220      0.0402
     72  CG        26.2860   31.8490   48.2150 C.3   220  GLU220      0.1161
     73  CD        26.4260   31.6690   49.7150 C.2   220  GLU220      0.3649
     74  OE1       27.2200   30.7970   50.1470 O.co2 220  GLU220     -0.2457
     75  OE2       25.7530   32.4300   50.4660 O.co2 220  GLU220     -0.2457
     76  N         29.3250   30.1280   45.3220 N.am  221  THR221     -0.1953
     77  CA        30.1170   29.0760   44.7100 C.3   221  THR221      0.1897
     78  C         31.2830   28.7020   45.6200 C.2   221  THR221      0.2313
     79  O         31.5750   29.3740   46.6090 O.2   221  THR221     -0.2863
     80  CB        30.6820   29.4900   43.3160 C.3   221  THR221      0.1794
     81  OG1       31.1480   28.3160   42.6190 O.3   221  THR221     -0.2208
     82  CG2       31.8700   30.4440   43.4660 C.3   221  THR221      0.0378
     83  N         34.3990   34.6280   32.0840 N.3   258  TYR258     -0.1227
     84  CA        33.0160   34.7440   32.5200 C.3   258  TYR258      0.1736
     85  C         32.9090   35.0770   34.0110 C.2   258  TYR258      0.2595
     86  O         33.7090   34.6160   34.8190 O.2   258  TYR258     -0.2718
     87  CB        32.3100   33.4140   32.2410 C.3   258  TYR258      0.0548
     88  CG        30.9660   33.2200   32.9060 C.ar  258  TYR258     -0.0200
     89  CD1       29.8290   33.8820   32.4450 C.ar  258  TYR258     -0.0009
     90  CD2       30.8250   32.3370   33.9810 C.ar  258  TYR258     -0.0009
     91  CE1       28.5790   33.6650   33.0380 C.ar  258  TYR258      0.0417
     92  CE2       29.5850   32.1150   34.5790 C.ar  258  TYR258      0.0417
     93  CZ        28.4670   32.7810   34.1030 C.ar  258  TYR258      0.1957
     94  OH        27.2410   32.5670   34.6990 O.3   258  TYR258     -0.2866
     95  N         31.9040   35.8770   34.3620 N.am  259  ALA259     -0.1980
     96  CA        31.6560   36.2560   35.7490 C.3   259  ALA259      0.1597
     97  C         32.8760   36.8030   36.4780 C.2   259  ALA259      0.2287
     98  O         33.5380   37.7210   36.0070 O.2   259  ALA259     -0.2864
     99  CB        31.0960   35.0640   36.5050 C.3   259  ALA259      0.0319
    100  N         35.3610   34.7890   37.3290 N.3   261  HIS261     -0.1241
    101  CA        36.3640   33.7460   37.1790 C.3   261  HIS261      0.1621
    102  C         37.7810   34.2740   37.0050 C.2   261  HIS261      0.2264
    103  O         38.7280   33.6240   37.4180 O.2   261  HIS261     -0.2867
    104  CB        35.9760   32.8210   36.0250 C.3   261  HIS261      0.0745
    105  CG        34.7580   32.0050   36.3170 C.ar  261  HIS261      0.0817
    106  ND1       34.3120   31.0000   35.4890 N.ar  261  HIS261     -0.2268
    107  CD2       33.9120   32.0240   37.3750 C.ar  261  HIS261      0.1154
    108  CE1       33.2470   30.4310   36.0240 C.ar  261  HIS261      0.1986
    109  NE2       32.9850   31.0340   37.1710 N.ar  261  HIS261     -0.2212
    110  N         39.3530   34.5850   40.3680 N.3   264  PHE264     -0.1241
    111  CA        39.7080   33.2690   40.9320 C.3   264  PHE264      0.1605
    112  C         41.0390   32.8080   40.3300 C.2   264  PHE264      0.2264
    113  O         41.9190   32.2890   41.0210 O.2   264  PHE264     -0.2867
    114  CB        38.6560   32.2150   40.5640 C.3   264  PHE264      0.0534
    115  CG        37.2810   32.4800   41.1320 C.ar  264  PHE264     -0.0203
    116  CD1       36.1930   31.7580   40.6690 C.ar  264  PHE264     -0.0042
    117  CD2       37.0770   33.4440   42.1200 C.ar  264  PHE264     -0.0042
    118  CE1       34.9050   31.9810   41.1730 C.ar  264  PHE264     -0.0003
    119  CE2       35.7950   33.6760   42.6300 C.ar  264  PHE264     -0.0003
    120  CZ        34.7100   32.9410   42.1540 C.ar  264  PHE264     -0.0000
@<TRIPOS>BOND
     1    17    16    2
     2    16    15    1
     3    15    14    1
     4    15    18    1
     5    18    19    1
     6    19    20    1
     7    20    21    1
     8    23    22    1
     9    21    22    2
    10    22    24    1
    11    83    84    1
    12    87    84    1
    13    87    88    1
    14    89    88   ar
    15    89    91   ar
    16    84    85    1
    17    88    90   ar
    18    91    93   ar
    19    25    26    1
    20    90    92   ar
    21    85    95   am
    22    85    86    2
    23    93    92   ar
    24    93    94    1
    25    95    96    1
    26    27    28    2
    27    27    26    1
    28    26    29    1
    29   106   108   ar
    30   106   105   ar
    31    96    97    1
    32    96    99    1
    33    36    35    2
    34    33    34    1
    35    98    97    2
    36   108   109   ar
    37   104   105    1
    38   104   101    1
    39    29    30    1
    40    29    31    1
    41    30    32    1
    42   105   107   ar
    43    35    34    1
    44    35    37   am
    45   102   101    1
    46   102   103    2
    47    62    61    1
    48    62    63    1
    49    61    60    1
    50   109   107   ar
    51   101   100    1
    52    65    64    1
    53    63    64    2
    54    64    66    1
    55    38    37    1
    56    38    39    1
    57    54    53   ar
    58    56    57    1
    59    55    53   ar
    60    12    11   ar
    61    60    57    1
    62    57    58    1
    63    53    52    1
    64    50    49    1
    65    50    51    2
    66    39    40    2
    67    49    52    1
    68    49    48    1
    69    11    10    1
    70    11    13   ar
    71    10     7    1
    72    58    59    2
    73     7     8    1
    74     7     6    1
    75   112   111    1
    76   112   113    2
    77   110   111    1
    78     8     9    2
    79   114   111    1
    80   114   115    1
    81   116   115   ar
    82   116   118   ar
    83   115   117   ar
    84   118   120   ar
    85    47    45    1
    86     5     2    1
    87   117   119   ar
    88   120   119   ar
    89    81    80    1
    90     2     3    1
    91     2     1    1
    92    45    46    1
    93    45    42    1
    94    44    43    2
    95    43    42    1
    96     3     4    2
    97    80    82    1
    98    80    77    1
    99    42    41    1
   100    70    69    2
   101    77    76    1
   102    77    78    1
   103    67    68    1
   104    69    76   am
   105    69    68    1
   106    78    79    2
   107    68    71    1
   108    71    72    1
   109    72    73    1
   110    73    74   ar
   111    73    75   ar
