@<TRIPOS>MOLECULE
tmp/1q36A00.pdb
 206 193 0 0 0
SMALL
GASTEIGER

@<TRIPOS>ATOM
      1  N         62.2430   18.1870   30.6380 N.3    22  LYS22      -0.1231
      2  CA        62.5230   17.4770   29.3720 C.3    22  LYS22       0.1693
      3  C         61.3140   17.5070   28.4170 C.2    22  LYS22       0.2592
      4  O         61.4880   17.7680   27.2050 O.2    22  LYS22      -0.2718
      5  CB        62.9320   16.0020   29.6870 C.3    22  LYS22       0.0285
      6  CG        63.1670   15.1680   28.3930 C.3    22  LYS22       0.0035
      7  CD        61.9930   14.1970   28.1450 C.3    22  LYS22       0.0206
      8  CE        62.1150   12.9540   29.0810 C.3    22  LYS22       0.1093
      9  NZ        60.9320   12.0750   29.0790 N.3    22  LYS22      -0.1314
     10  N         60.1270   17.2500   28.9520 N.am   23  SER23      -0.1952
     11  CA        58.9120   17.2430   28.1420 C.3    23  SER23       0.1924
     12  C         58.6640   18.5950   27.4840 C.2    23  SER23       0.2314
     13  O         58.3240   18.6690   26.2980 O.2    23  SER23      -0.2863
     14  CB        57.7080   16.8790   29.0120 C.3    23  SER23       0.2116
     15  OG        57.8710   15.5270   29.4740 O.3    23  SER23      -0.2180
     16  N         59.4340   19.6660   23.1760 N.3    27  ARG27      -0.1245
     17  CA        58.3030   20.2050   22.4110 C.3    27  ARG27       0.1563
     18  C         58.6360   21.6290   21.9650 C.2    27  ARG27       0.2260
     19  O         58.3890   22.0130   20.8190 O.2    27  ARG27      -0.2867
     20  CB        57.0320   20.2620   23.2890 C.3    27  ARG27       0.0307
     21  CG        56.3540   18.9050   23.4680 C.3    27  ARG27       0.0489
     22  CD        55.4050   19.0530   24.6770 C.3    27  ARG27       0.2205
     23  NE        54.5460   17.9070   24.9200 N.pl3  27  ARG27      -0.0865
     24  CZ        54.9200   16.7680   25.5110 C.cat  27  ARG27       0.5346
     25  NH1       54.0250   15.8030   25.7030 N.pl3  27  ARG27       0.1354
     26  NH2       56.1990   16.5840   25.9000 N.pl3  27  ARG27       0.1354
     27  N         68.3840   13.5420   26.1040 N.3    49  ASP49      -0.1239
     28  CA        67.2100   13.6370   25.2440 C.3    49  ASP49       0.1674
     29  C         67.1340   14.9500   24.5000 C.2    49  ASP49       0.2266
     30  O         66.7040   14.9670   23.3530 O.2    49  ASP49      -0.2867
     31  CB        65.9170   13.4420   26.0030 C.3    49  ASP49       0.1410
     32  CG        65.6680   11.9800   26.4060 C.2    49  ASP49       0.3668
     33  OD1       66.4340   11.0750   25.9970 O.co2  49  ASP49      -0.2456
     34  OD2       64.6450   11.7710   27.1170 O.co2  49  ASP49      -0.2456
     35  N         61.9850    9.4230   23.5840 N.3    96  GLY96      -0.1210
     36  CA        60.6550    9.3290   23.0030 C.3    96  GLY96       0.1956
     37  C         60.1420   10.6760   22.5190 C.2    96  GLY96       0.2612
     38  O         59.4170   10.7520   21.5090 O.2    96  GLY96      -0.2717
     39  N         60.5160   11.7420   23.2210 N.am   97  THR97      -0.1952
     40  CA        60.0230   13.0690   22.8610 C.3    97  THR97       0.1897
     41  C         60.7150   13.6090   21.6350 C.2    97  THR97       0.2313
     42  O         60.3820   14.7110   21.1970 O.2    97  THR97      -0.2863
     43  CB        60.1390   14.0900   24.0010 C.3    97  THR97       0.1794
     44  OG1       61.4940   14.1870   24.4500 O.3    97  THR97      -0.2208
     45  CG2       59.2580   13.6520   25.1530 C.3    97  THR97       0.0378
     46  N         58.9920   10.1690   18.7130 N.3   100  ARG100     -0.1245
     47  CA        57.5800   10.1770   18.3360 C.3   100  ARG100      0.1563
     48  C         57.2170   11.4860   17.6290 C.2   100  ARG100      0.2260
     49  O         56.6820   11.4500   16.5160 O.2   100  ARG100     -0.2867
     50  CB        56.6750    9.8960   19.5600 C.3   100  ARG100      0.0307
     51  CG        56.5310    8.3980   19.9480 C.3   100  ARG100      0.0489
     52  CD        57.8530    7.7560   20.4250 C.3   100  ARG100      0.2205
     53  NE        57.6400    6.3540   20.8170 N.pl3 100  ARG100     -0.0865
     54  CZ        57.3370    5.9780   22.0670 C.cat 100  ARG100      0.5346
     55  NH1       57.1470    4.7050   22.3590 N.pl3 100  ARG100      0.1354
     56  NH2       57.2280    6.8910   23.0190 N.pl3 100  ARG100      0.1354
     57  N         60.8720    0.0040   21.5600 N.3   124  ARG124     -0.1245
     58  CA        59.7930    0.8400   22.1330 C.3   124  ARG124      0.1563
     59  C         58.8070    1.0160   20.9840 C.2   124  ARG124      0.2260
     60  O         59.1570    1.5040   19.8880 O.2   124  ARG124     -0.2867
     61  CB        60.3380    2.1560   22.6690 C.3   124  ARG124      0.0307
     62  CG        61.1950    1.9260   23.9370 C.3   124  ARG124      0.0489
     63  CD        61.6670    3.2040   24.5470 C.3   124  ARG124      0.2205
     64  NE        60.5510    4.0040   25.0270 N.pl3 124  ARG124     -0.0865
     65  CZ        60.6550    5.2680   25.4330 C.cat 124  ARG124      0.5346
     66  NH1       59.5620    5.8960   25.8500 N.pl3 124  ARG124      0.1354
     67  NH2       61.8420    5.9010   25.4200 N.pl3 124  ARG124      0.1354
     68  N         48.5170    2.8850   24.7460 N.3   168  VAL168     -0.1231
     69  CA        49.9080    2.5670   25.1020 C.3   168  VAL168      0.1692
     70  C         50.7980    3.7850   25.4060 C.2   168  VAL168      0.2593
     71  O         51.6630    3.7490   26.3120 O.2   168  VAL168     -0.2718
     72  CB        50.5400    1.7070   23.9810 C.3   168  VAL168      0.0266
     73  CG1       52.0320    1.5120   24.2160 C.3   168  VAL168      0.0020
     74  CG2       49.8420    0.3660   23.9520 C.3   168  VAL168      0.0020
     75  N         50.6460    4.8580   24.6380 N.am  169  SER169     -0.1938
     76  CA        51.4360    6.0710   24.9040 C.3   169  SER169      0.2055
     77  C         50.6280    7.2880   24.4860 C.2   169  SER169      0.2644
     78  O         49.9110    7.2670   23.4730 O.2   169  SER169     -0.2714
     79  CB        52.7330    6.0600   24.0530 C.3   169  SER169      0.2130
     80  OG        53.4590    7.2440   24.2960 O.3   169  SER169     -0.2179
     81  N         50.7450    8.3490   25.2650 N.am  170  SER170     -0.1935
     82  CA        50.1090    9.6070   24.9020 C.3   170  SER170      0.2055
     83  C         51.0020   10.2960   23.8470 C.2   170  SER170      0.2642
     84  O         50.5640   11.2310   23.1810 O.2   170  SER170     -0.2714
     85  CB        50.0070   10.5310   26.1160 C.3   170  SER170      0.2130
     86  OG        51.2900   10.9770   26.5460 O.3   170  SER170     -0.2179
     87  N         52.2230    9.8060   23.6530 N.am  171  GLN171     -0.1976
     88  CA        53.0950   10.4850   22.7110 C.3   171  GLN171      0.1601
     89  C         52.6820   10.4150   21.2660 C.2   171  GLN171      0.2287
     90  O         53.0430   11.2700   20.4800 O.2   171  GLN171     -0.2864
     91  CB        54.5350    9.9580   22.8450 C.3   171  GLN171      0.0394
     92  CG        55.1320   10.3290   24.1890 C.3   171  GLN171      0.0908
     93  CD        56.6230   10.0420   24.2580 C.2   171  GLN171      0.2608
     94  OE1       57.2540    9.6400   23.2860 O.2   171  GLN171     -0.2717
     95  NE2       57.2020   10.2880   25.4300 N.am  171  GLN171     -0.0878
     96  N         50.2310   13.1790   20.9590 N.3   174  THR174     -0.1218
     97  CA        50.9990   14.4010   20.9900 C.3   174  THR174      0.1862
     98  C         51.6600   14.7010   19.6490 C.2   174  THR174      0.2287
     99  O         51.6230   15.8490   19.1560 O.2   174  THR174     -0.2866
    100  CB        52.0770   14.3140   22.0770 C.3   174  THR174      0.1770
    101  OG1       51.4540   14.6820   23.3070 O.3   174  THR174     -0.2211
    102  CG2       53.2990   15.2220   21.7790 C.3   174  THR174      0.0375
    103  N         48.2670    8.4450   30.2840 N.3   197  SER197     -0.1217
    104  CA        49.1500    9.5980   30.4310 C.3   197  SER197      0.1889
    105  C         48.5400   10.9070   29.9430 C.2   197  SER197      0.2288
    106  O         49.2320   11.7640   29.3830 O.2   197  SER197     -0.2866
    107  CB        50.4500    9.3070   29.6730 C.3   197  SER197      0.2089
    108  OG        51.1420    8.2370   30.3200 O.3   197  SER197     -0.2183
    109  N         50.0150   14.6350   29.7250 N.3   200  TYR200     -0.1241
    110  CA        51.0290   15.0580   28.7640 C.3   200  TYR200      0.1605
    111  C         50.4010   15.6910   27.5520 C.2   200  TYR200      0.2264
    112  O         51.0540   16.4900   26.8560 O.2   200  TYR200     -0.2867
    113  CB        51.9570   13.8830   28.3580 C.3   200  TYR200      0.0534
    114  CG        52.8570   13.5010   29.4960 C.ar  200  TYR200     -0.0201
    115  CD1       52.5170   12.4640   30.3740 C.ar  200  TYR200     -0.0009
    116  CD2       54.0670   14.1750   29.6810 C.ar  200  TYR200     -0.0009
    117  CE1       53.3710   12.0960   31.4180 C.ar  200  TYR200      0.0417
    118  CE2       54.9470   13.7930   30.7450 C.ar  200  TYR200      0.0417
    119  CZ        54.5800   12.7480   31.5870 C.ar  200  TYR200      0.1957
    120  OH        55.4900   12.2910   32.5460 O.3   200  TYR200     -0.2866
    121  N         52.8280    8.5140   35.5970 N.3   312  PRO312     -0.2102
    122  CA        53.6480    7.3150   35.4130 C.3   312  PRO312      0.1504
    123  C         55.1290    7.4780   35.7360 C.2   312  PRO312      0.2575
    124  O         55.7260    6.5330   36.2660 O.2   312  PRO312     -0.2718
    125  CB        53.4250    6.9510   33.9420 C.3   312  PRO312      0.0282
    126  CG        53.1660    8.2860   33.2880 C.3   312  PRO312      0.0208
    127  CD        52.2440    8.9620   34.3070 C.3   312  PRO312      0.0893
    128  N         55.6950    8.6460   35.4700 N.am  313  ALA313     -0.1980
    129  CA        57.1190    8.8450   35.7280 C.3   313  ALA313      0.1597
    130  C         57.3680    9.0280   37.2190 C.2   313  ALA313      0.2287
    131  O         58.1280    8.2590   37.8550 O.2   313  ALA313     -0.2864
    132  CB        57.6250   10.0240   34.9800 C.3   313  ALA313      0.0319
    133  N         52.1000    0.7860   31.0430 N.3   336  ASN336     -0.1240
    134  CA        53.1280    1.2520   30.0970 C.3   336  ASN336      0.1653
    135  C         54.5200    1.4970   30.6510 C.2   336  ASN336      0.2266
    136  O         55.4470    1.8720   29.9020 O.2   336  ASN336     -0.2867
    137  CB        52.6180    2.4010   29.2010 C.3   336  ASN336      0.1155
    138  CG        52.6850    3.7740   29.8350 C.2   336  ASN336      0.2627
    139  OD1       53.0840    3.9520   30.9980 O.2   336  ASN336     -0.2716
    140  ND2       52.2900    4.7710   29.0520 N.am  336  ASN336     -0.0877
    141  N         56.9390   -0.4850   28.5770 N.3   339  VAL339     -0.1231
    142  CA        57.4480   -0.1930   27.2370 C.3   339  VAL339      0.1692
    143  C         58.2610    1.0700   27.1640 C.2   339  VAL339      0.2592
    144  O         58.3520    1.7430   26.1080 O.2   339  VAL339     -0.2718
    145  CB        56.2790   -0.1870   26.2230 C.3   339  VAL339      0.0266
    146  CG1       55.6020   -1.5690   26.2270 C.3   339  VAL339      0.0020
    147  CG2       55.2360    0.8920   26.5970 C.3   339  VAL339      0.0020
    148  N         58.9010    1.3940   28.2800 N.am  340  LYS340     -0.1966
    149  CA        59.6820    2.6110   28.3320 C.3   340  LYS340      0.1728
    150  C         61.1910    2.3800   28.2830 C.2   340  LYS340      0.2616
    151  O         61.5970    1.4510   27.6050 O.2   340  LYS340     -0.2715
    152  CB        59.2070    3.4090   29.5270 C.3   340  LYS340      0.0311
    153  CG        57.9200    4.1800   29.1070 C.3   340  LYS340      0.0038
    154  CD        57.1700    4.7390   30.2760 C.3   340  LYS340      0.0206
    155  CE        55.9930    5.5420   29.6940 C.3   340  LYS340      0.1093
    156  NZ        55.0470    6.0730   30.7430 N.3   340  LYS340     -0.1314
    157  N         62.0250    3.1770   28.9750 N.am  341  GLU341     -0.1977
    158  CA        63.4810    2.9900   28.8890 C.3   341  GLU341      0.1602
    159  C         63.8930    1.5630   29.1760 C.2   341  GLU341      0.2287
    160  O         64.8960    1.0840   28.6550 O.2   341  GLU341     -0.2864
    161  CB        64.2280    3.9720   29.8240 C.3   341  GLU341      0.0415
    162  CG        64.1690    5.4730   29.3350 C.3   341  GLU341      0.1163
    163  CD        62.8570    6.2400   29.6900 C.2   341  GLU341      0.3649
    164  OE1       61.7380    5.6360   29.7850 O.co2 341  GLU341     -0.2457
    165  OE2       62.9560    7.4710   29.8440 O.co2 341  GLU341     -0.2457
    166  N         59.9110   -1.2520   33.2640 N.3   344  ARG344     -0.1245
    167  CA        60.0670   -0.7400   34.6230 C.3   344  ARG344      0.1563
    168  C         59.3450   -1.5300   35.6920 C.2   344  ARG344      0.2260
    169  O         59.7100   -1.4670   36.8540 O.2   344  ARG344     -0.2867
    170  CB        59.6540    0.7360   34.6660 C.3   344  ARG344      0.0307
    171  CG        60.6640    1.6050   33.9360 C.3   344  ARG344      0.0489
    172  CD        60.0670    3.0010   33.6380 C.3   344  ARG344      0.2205
    173  NE        61.1550    3.9620   33.4160 N.pl3 344  ARG344     -0.0865
    174  CZ        60.9940    5.2140   32.9760 C.cat 344  ARG344      0.5346
    175  NH1       62.0590    6.0140   32.8460 N.pl3 344  ARG344      0.1354
    176  NH2       59.7770    5.6680   32.6460 N.pl3 344  ARG344      0.1354
    177  N         67.5780    6.1780   33.4610 N.3   385  HIS385     -0.1226
    178  CA        67.8240    7.2810   34.4080 C.3   385  HIS385      0.1752
    179  C         66.9460    7.1570   35.6400 C.2   385  HIS385      0.2595
    180  O         67.4490    7.3950   36.7560 O.2   385  HIS385     -0.2718
    181  CB        67.5430    8.6550   33.7400 C.3   385  HIS385      0.0759
    182  CG        66.2090    8.7480   33.0550 C.ar  385  HIS385      0.0818
    183  ND1       65.4670    9.9030   33.1020 N.ar  385  HIS385     -0.2268
    184  CD2       65.4780    7.8670   32.3200 C.ar  385  HIS385      0.1154
    185  CE1       64.3410    9.7430   32.4310 C.ar  385  HIS385      0.1986
    186  NE2       64.3200    8.5180   31.9390 N.ar  385  HIS385     -0.2212
    187  N         65.6740    6.7840   35.4920 N.am  386  ARG386     -0.1980
    188  CA        64.8210    6.7550   36.6750 C.3   386  ARG386      0.1597
    189  C         65.1030    5.6350   37.6480 C.2   386  ARG386      0.2287
    190  O         64.8020    5.7560   38.8500 O.2   386  ARG386     -0.2864
    191  CB        63.3350    6.7800   36.2640 C.3   386  ARG386      0.0334
    192  CG        63.0190    8.0300   35.4840 C.3   386  ARG386      0.0492
    193  CD        61.4940    8.3190   35.4760 C.3   386  ARG386      0.2205
    194  NE        61.2600    9.3780   34.4890 N.pl3 386  ARG386     -0.0865
    195  CZ        61.6040   10.6530   34.6220 C.cat 386  ARG386      0.5346
    196  NH1       61.3730   11.5060   33.6000 N.pl3 386  ARG386      0.1354
    197  NH2       62.1000   11.1280   35.7730 N.pl3 386  ARG386      0.1354
    198  N         70.0770   10.9680   30.8690 N.3   411  LYS411     -0.1245
    199  CA        68.9950   11.0280   29.9160 C.3   411  LYS411      0.1561
    200  C         68.1630   12.2990   30.1700 C.2   411  LYS411      0.2260
    201  O         67.7650   12.9650   29.2080 O.2   411  LYS411     -0.2867
    202  CB        68.0710    9.7970   29.9940 C.3   411  LYS411      0.0271
    203  CG        67.1000    9.7160   28.8010 C.3   411  LYS411      0.0035
    204  CD        66.4010    8.3510   28.6950 C.3   411  LYS411      0.0206
    205  CE        65.4120    8.2410   27.5120 C.3   411  LYS411      0.1093
    206  NZ        64.2180    9.0950   27.7310 N.3   411  LYS411     -0.1314
@<TRIPOS>BOND
     1    49    48    2
     2    48    47    1
     3    47    46    1
     4    47    50    1
     5    99    98    2
     6    50    51    1
     7    98    97    1
     8    60    59    2
     9    51    52    1
    10    52    53    1
    11    90    89    2
    12    53    54    2
    13    19    18    2
    14    96    97    1
    15    59    58    1
    16    97   100    1
    17    42    41    2
    18    89    88    1
    19    38    37    2
    20    57    58    1
    21    41    40    1
    22   102   100    1
    23    18    17    1
    24    54    55    1
    25    54    56    1
    26   100   101    1
    27    58    61    1
    28    17    16    1
    29    17    20    1
    30    37    36    1
    31    37    39   am
    32    61    62    1
    33    88    91    1
    34    88    87    1
    35    91    92    1
    36    40    39    1
    37    40    43    1
    38    36    35    1
    39    84    83    2
    40    94    93    2
    41    20    21    1
    42    30    29    2
    43    21    22    1
    44    78    77    2
    45    87    83   am
    46    83    82    1
    47    62    63    1
    48    74    72    1
    49    72    73    1
    50    72    69    1
    51    43    44    1
    52    43    45    1
    53    79    80    1
    54    79    76    1
    55    92    93    1
    56    93    95   am
    57    77    76    1
    58    77    81   am
    59    29    28    1
    60    63    64    1
    61    75    76    1
    62    75    70   am
    63    22    23    1
    64    68    69    1
    65    82    81    1
    66    82    85    1
    67    23    24    2
    68    64    65    2
    69    69    70    1
    70    28    31    1
    71    28    27    1
    72    70    71    2
    73    67    65    1
    74    65    66    1
    75    24    25    1
    76    24    26    1
    77    33    32   ar
    78    31    32    1
    79   144   143    2
    80    85    86    1
    81   145   146    1
    82   145   147    1
    83   145   142    1
    84    13    12    2
    85    32    34   ar
    86   112   111    2
    87   143   142    1
    88   143   148   am
    89     4     3    2
    90   142   141    1
    91    12    11    1
    92   205   206    1
    93   205   204    1
    94   111   110    1
    95   151   150    2
    96    11    10    1
    97    11    14    1
    98     7     6    1
    99     7     8    1
   100   148   149    1
   101   150   149    1
   102   150   157   am
   103   149   152    1
   104   113   110    1
   105   113   114    1
   106     6     5    1
   107     3    10   am
   108     3     2    1
   109   160   159    2
   110   204   203    1
   111   110   109    1
   112   203   202    1
   113   158   157    1
   114   158   159    1
   115   158   161    1
   116    14    15    1
   117   140   138   am
   118     9     8    1
   119   153   152    1
   120   153   154    1
   121   137   138    1
   122   137   134    1
   123   201   200    2
   124   162   163    1
   125   162   161    1
   126     2     5    1
   127     2     1    1
   128   106   105    2
   129   114   116   ar
   130   114   115   ar
   131   107   108    1
   132   107   104    1
   133   116   118   ar
   134   163   164   ar
   135   163   165   ar
   136   155   154    1
   137   155   156    1
   138   138   139    2
   139   136   135    2
   140   199   202    1
   141   199   200    1
   142   199   198    1
   143   105   104    1
   144   134   135    1
   145   134   133    1
   146   103   104    1
   147   115   117   ar
   148   118   119   ar
   149   117   119   ar
   150   119   120    1
   151   186   184   ar
   152   186   185   ar
   153   184   182   ar
   154   185   183   ar
   155   176   174    1
   156   175   174    1
   157   174   173    2
   158   182   183   ar
   159   182   181    1
   160   166   167    1
   161   126   125    1
   162   126   127    1
   163   173   172    1
   164   177   178    1
   165   196   195    1
   166   172   171    1
   167   181   178    1
   168   171   170    1
   169   125   122    1
   170   127   121    1
   171   178   179    1
   172   194   195    2
   173   194   193    1
   174   195   197    1
   175   167   170    1
   176   167   168    1
   177   132   129    1
   178   122   121    1
   179   122   123    1
   180   128   129    1
   181   128   123   am
   182   193   192    1
   183   192   191    1
   184   187   179   am
   185   187   188    1
   186   179   180    2
   187   168   169    2
   188   129   130    1
   189   123   124    2
   190   191   188    1
   191   188   189    1
   192   130   131    2
   193   189   190    2
