@<TRIPOS>MOLECULE
tmp/1q3dB00.pdb
 158 148 0 0 0
SMALL
GASTEIGER

@<TRIPOS>ATOM
      1  N         21.8210  -24.2710   15.3640 N.3    28  ILE28      -0.1231
      2  CA        22.9610  -23.5140   14.8460 C.3    28  ILE28       0.1692
      3  C         22.8560  -22.0450   15.2390 C.2    28  ILE28       0.2593
      4  O         23.7800  -21.2630   15.0420 O.2    28  ILE28      -0.2718
      5  CB        23.1080  -23.6240   13.3010 C.3    28  ILE28       0.0266
      6  CG1       21.8750  -23.0690   12.5970 C.3    28  ILE28       0.0019
      7  CG2       23.3480  -25.0650   12.9090 C.3    28  ILE28       0.0020
      8  CD1       22.0170  -23.0140   11.0840 C.3    28  ILE28       0.0001
      9  N         21.7310  -21.6690   15.8220 N.am   29  GLY29      -0.1942
     10  CA        21.5930  -20.2870   16.2190 C.3    29  GLY29       0.2014
     11  C         20.4490  -20.0410   17.1640 C.2    29  GLY29       0.2639
     12  O         19.5540  -20.8640   17.2970 O.2    29  GLY29      -0.2714
     13  N         20.4990  -18.9030   17.8430 N.am   30  ASN30      -0.1958
     14  CA        19.4460  -18.5150   18.7700 C.3    30  ASN30       0.1819
     15  C         18.9820  -17.1220   18.3780 C.2    30  ASN30       0.2621
     16  O         19.4370  -16.1060   18.9220 O.2    30  ASN30      -0.2715
     17  CB        19.9560  -18.5520   20.2080 C.3    30  ASN30       0.1195
     18  CG        20.1590  -19.9740   20.6940 C.2    30  ASN30       0.2630
     19  OD1       19.2090  -20.7580   20.7600 O.2    30  ASN30      -0.2716
     20  ND2       21.3970  -20.3230   21.0190 N.am   30  ASN30      -0.0877
     21  N         18.0710  -17.0990   17.4090 N.am   31  GLY31      -0.1954
     22  CA        17.5510  -15.8490   16.9060 C.3    31  GLY31       0.1869
     23  C         16.5130  -15.1860   17.7740 C.2    31  GLY31       0.2309
     24  O         15.3200  -15.2790   17.4730 O.2    31  GLY31      -0.2863
     25  N         17.1770  -21.5480   15.4900 N.3    36  VAL36      -0.1245
     26  CA        17.3780  -21.8000   14.0740 C.3    36  VAL36       0.1561
     27  C         18.1390  -23.1200   14.0210 C.2    36  VAL36       0.2260
     28  O         19.1520  -23.2970   14.7170 O.2    36  VAL36      -0.2867
     29  CB        18.2190  -20.7060   13.3800 C.3    36  VAL36       0.0252
     30  CG1       18.5090  -21.1300   11.9580 C.3    36  VAL36       0.0019
     31  CG2       17.4900  -19.3720   13.4010 C.3    36  VAL36       0.0019
     32  N         17.8700  -24.3140    6.5450 N.3    49  ALA49      -0.1245
     33  CA        17.9150  -23.7290    7.8760 C.3    49  ALA49       0.1562
     34  C         16.4490  -23.5980    8.2640 C.2    49  ALA49       0.2260
     35  O         15.6170  -23.1930    7.4410 O.2    49  ALA49      -0.2867
     36  CB        18.5680  -22.3580    7.8350 C.3    49  ALA49       0.0290
     37  N         13.9120  -21.8300   10.9190 N.3    51  LYS51      -0.1245
     38  CA        13.7210  -20.8500   11.9690 C.3    51  LYS51       0.1561
     39  C         12.3760  -21.1380   12.6260 C.2    51  LYS51       0.2260
     40  O         11.3420  -21.1550   11.9610 O.2    51  LYS51      -0.2867
     41  CB        13.7480  -19.4330   11.3880 C.3    51  LYS51       0.0271
     42  CG        13.5080  -18.3660   12.4400 C.3    51  LYS51       0.0035
     43  CD        13.5920  -16.9390   11.8990 C.3    51  LYS51       0.0206
     44  CE        13.0020  -15.9590   12.9220 C.3    51  LYS51       0.1093
     45  NZ        13.2790  -14.5330   12.6070 N.3    51  LYS51      -0.1314
     46  N          6.8270  -11.1310    9.4900 N.3    63  GLU63      -0.1245
     47  CA         7.9870  -11.6650    8.7880 C.3    63  GLU63       0.1567
     48  C          7.4990  -12.6600    7.7150 C.2    63  GLU63       0.2260
     49  O          7.9420  -12.6100    6.5600 O.2    63  GLU63      -0.2867
     50  CB         8.9620  -12.3370    9.7840 C.3    63  GLU63       0.0388
     51  CG        10.2760  -12.8630    9.1620 C.3    63  GLU63       0.1160
     52  CD        11.1810  -13.6330   10.1530 C.2    63  GLU63       0.3649
     53  OE1       10.6920  -14.1010   11.2090 O.co2  63  GLU63      -0.2457
     54  OE2       12.3950  -13.7940    9.8640 O.co2  63  GLU63      -0.2457
     55  N         17.8630  -14.7620    1.0440 N.3    76  VAL76      -0.1245
     56  CA        17.5990  -16.1030    1.5400 C.3    76  VAL76       0.1561
     57  C         16.1030  -16.3890    1.2740 C.2    76  VAL76       0.2260
     58  O         15.2180  -15.6710    1.7550 O.2    76  VAL76      -0.2867
     59  CB        17.9340  -16.2020    3.0650 C.3    76  VAL76       0.0252
     60  CG1       17.3650  -17.4810    3.6630 C.3    76  VAL76       0.0019
     61  CG2       19.4680  -16.1550    3.2630 C.3    76  VAL76       0.0019
     62  N         14.2050  -22.2880    5.2720 N.3    94  LEU94      -0.1231
     63  CA        14.9980  -21.3690    4.4610 C.3    94  LEU94       0.1693
     64  C         16.2380  -21.9790    3.8210 C.2    94  LEU94       0.2592
     65  O         16.7090  -23.0330    4.2470 O.2    94  LEU94      -0.2718
     66  CB        15.4570  -20.2210    5.3700 C.3    94  LEU94       0.0284
     67  CG        14.3720  -19.5770    6.2370 C.3    94  LEU94       0.0019
     68  CD1       14.9780  -18.8020    7.4150 C.3    94  LEU94       0.0001
     69  CD2       13.5550  -18.6400    5.3640 C.3    94  LEU94       0.0001
     70  N         16.7660  -21.3080    2.7930 N.am   95  ASP95      -0.1960
     71  CA        18.0240  -21.7540    2.1650 C.3    95  ASP95       0.1840
     72  C         19.0830  -21.7590    3.2960 C.2    95  ASP95       0.2622
     73  O         19.0480  -20.8990    4.1860 O.2    95  ASP95      -0.2715
     74  CB        18.5670  -20.7450    1.1380 C.3    95  ASP95       0.1450
     75  CG        17.7290  -20.6170   -0.1220 C.2    95  ASP95       0.3671
     76  OD1       17.2190  -21.6470   -0.6530 O.co2  95  ASP95      -0.2456
     77  OD2       17.6390  -19.4500   -0.6080 O.co2  95  ASP95      -0.2456
     78  N         20.0090  -22.7120    3.2600 N.am   96  TYR96      -0.1960
     79  CA        21.1010  -22.7730    4.2310 C.3    96  TYR96       0.1771
     80  C         22.3120  -22.1360    3.5180 C.2    96  TYR96       0.2619
     81  O         22.5560  -22.4200    2.3440 O.2    96  TYR96      -0.2715
     82  CB        21.4330  -24.2250    4.5980 C.3    96  TYR96       0.0574
     83  CG        22.7090  -24.3770    5.4180 C.ar   96  TYR96      -0.0198
     84  CD1       22.7130  -24.1680    6.7980 C.ar   96  TYR96      -0.0009
     85  CD2       23.9220  -24.6960    4.8000 C.ar   96  TYR96      -0.0009
     86  CE1       23.8920  -24.2690    7.5440 C.ar   96  TYR96       0.0417
     87  CE2       25.1130  -24.8010    5.5430 C.ar   96  TYR96       0.0417
     88  CZ        25.0870  -24.5840    6.9040 C.ar   96  TYR96       0.1957
     89  OH        26.2640  -24.6440    7.6160 O.3    96  TYR96      -0.2866
     90  N         23.0350  -21.2540    4.2100 N.am   97  VAL97      -0.1964
     91  CA        24.2140  -20.5850    3.6330 C.3    97  VAL97       0.1712
     92  C         25.2440  -20.6320    4.7590 C.2    97  VAL97       0.2458
     93  O         25.0340  -20.0790    5.8340 O.2    97  VAL97      -0.2730
     94  CB        23.9160  -19.1340    3.2330 C.3    97  VAL97       0.0289
     95  CG1       25.0660  -18.5780    2.4190 C.3    97  VAL97       0.0023
     96  CG2       22.6280  -19.0840    2.3900 C.3    97  VAL97       0.0023
     97  N         26.3890  -21.2910    4.5050 N.am   98  PRO98      -0.2727
     98  CA        27.4960  -21.4880    5.4560 C.3    98  PRO98       0.1402
     99  C         28.2940  -20.3270    6.0660 C.2    98  PRO98       0.2269
    100  O         28.6110  -20.3530    7.2510 O.2    98  PRO98      -0.2865
    101  CB        28.3880  -22.4950    4.7190 C.3    98  PRO98       0.0296
    102  CG        28.2820  -22.0180    3.2860 C.3    98  PRO98       0.0237
    103  CD        26.7840  -21.6840    3.1360 C.3    98  PRO98       0.0939
    104  N         29.4250  -15.8420    6.3820 N.3   100  THR100     -0.1218
    105  CA        28.8730  -14.4870    6.4930 C.3   100  THR100      0.1862
    106  C         29.9630  -13.4290    6.2170 C.2   100  THR100      0.2287
    107  O         31.1710  -13.6930    6.3600 O.2   100  THR100     -0.2866
    108  CB        28.2770  -14.1960    7.9250 C.3   100  THR100      0.1770
    109  OG1       29.3280  -14.2070    8.9000 O.3   100  THR100     -0.2211
    110  CG2       27.2150  -15.2420    8.3310 C.3   100  THR100      0.0375
    111  N         23.4890   -5.2690    8.3650 N.3   145  LYS145     -0.1245
    112  CA        24.7430   -5.3690    9.0940 C.3   145  LYS145      0.1561
    113  C         25.4480   -6.6280    8.5880 C.2   145  LYS145      0.2260
    114  O         24.7990   -7.5380    8.0720 O.2   145  LYS145     -0.2867
    115  CB        24.4810   -5.4680   10.5970 C.3   145  LYS145      0.0271
    116  CG        23.7330   -6.6980   11.0170 C.3   145  LYS145      0.0035
    117  CD        23.2930   -6.5460   12.4680 C.3   145  LYS145      0.0206
    118  CE        22.6060   -7.7780   12.9770 C.3   145  LYS145      0.1093
    119  NZ        22.1800   -7.5420   14.3870 N.3   145  LYS145     -0.1314
    120  N         26.5000   -9.4100    9.8890 N.3   147  GLN147     -0.1231
    121  CA        25.9970  -10.7030   10.3260 C.3   147  GLN147      0.1698
    122  C         24.7350  -11.1900    9.6060 C.2   147  GLN147      0.2592
    123  O         24.3420  -12.3570    9.7500 O.2   147  GLN147     -0.2718
    124  CB        25.7680  -10.6740   11.8330 C.3   147  GLN147      0.0381
    125  CG        27.0510  -10.3950   12.5670 C.3   147  GLN147      0.0905
    126  CD        26.8660  -10.2860   14.0520 C.2   147  GLN147      0.2608
    127  OE1       26.7920  -11.3000   14.7680 O.2   147  GLN147     -0.2717
    128  NE2       26.7850   -9.0450   14.5430 N.am  147  GLN147     -0.0878
    129  N         24.1090  -10.2940    8.8360 N.am  148  ASN148     -0.1974
    130  CA        22.9110  -10.6370    8.0800 C.3   148  ASN148      0.1688
    131  C         23.1910  -10.7730    6.5930 C.2   148  ASN148      0.2292
    132  O         22.2570  -10.8550    5.7950 O.2   148  ASN148     -0.2864
    133  CB        21.7960   -9.6070    8.3060 C.3   148  ASN148      0.1181
    134  CG        21.1420   -9.7510    9.6670 C.2   148  ASN148      0.2629
    135  OD1       21.1340  -10.8410   10.2500 O.2   148  ASN148     -0.2716
    136  ND2       20.5650   -8.6570   10.1750 N.am  148  ASN148     -0.0877
    137  N         24.7770  -13.3680    4.3470 N.3   150  LEU150     -0.1245
    138  CA        25.3230  -14.7200    4.2670 C.3   150  LEU150      0.1561
    139  C         26.0920  -14.9310    2.9650 C.2   150  LEU150      0.2260
    140  O         25.7730  -14.3320    1.9460 O.2   150  LEU150     -0.2867
    141  CB        24.1960  -15.7430    4.4040 C.3   150  LEU150      0.0270
    142  CG        23.2010  -15.4350    5.5150 C.3   150  LEU150      0.0019
    143  CD1       22.2960  -16.6450    5.7330 C.3   150  LEU150      0.0001
    144  CD2       23.9440  -15.0830    6.8170 C.3   150  LEU150      0.0001
    145  N         19.6080  -11.8780    4.7680 N.3   161  CYS161     -0.1221
    146  CA        18.6980  -12.6700    5.5860 C.3   161  CYS161      0.1808
    147  C         18.1720  -11.8870    6.7910 C.2   161  CYS161      0.2601
    148  O         18.5830  -10.7430    7.0300 O.2   161  CYS161     -0.2717
    149  CB        19.3700  -13.9600    6.0720 C.3   161  CYS161      0.0970
    150  SG        20.4760  -13.7060    7.4840 S.3   161  CYS161     -0.0800
    151  N         17.2920  -12.5530    7.5400 N.am  162  ASP162     -0.1973
    152  CA        16.6270  -12.0390    8.7450 C.3   162  ASP162      0.1709
    153  C         15.6960  -10.8500    8.4860 C.2   162  ASP162      0.2293
    154  O         16.0990   -9.6930    8.6000 O.2   162  ASP162     -0.2864
    155  CB        17.6250  -11.6250    9.8240 C.3   162  ASP162      0.1436
    156  CG        16.9480  -11.4240   11.2190 C.2   162  ASP162      0.3671
    157  OD1       15.6860  -11.3820   11.3170 O.co2 162  ASP162     -0.2456
    158  OD2       17.6900  -11.3030   12.2270 O.co2 162  ASP162     -0.2456
@<TRIPOS>BOND
     1    76    75   ar
     2    77    75   ar
     3    75    74    1
     4    55    56    1
     5    74    71    1
     6    57    56    1
     7    57    58    2
     8    56    59    1
     9   140   139    2
    10    71    70    1
    11    71    72    1
    12    81    80    2
    13    96    94    1
    14    95    94    1
    15    70    64   am
    16   139   138    1
    17    59    61    1
    18    59    60    1
    19   103   102    1
    20   103    97    1
    21    94    91    1
    22    78    72   am
    23    78    79    1
    24   102   101    1
    25    72    73    2
    26    80    90   am
    27    80    79    1
    28    91    90    1
    29    91    92    1
    30    64    65    2
    31    64    63    1
    32    79    82    1
    33   138   137    1
    34   138   141    1
    35   141   142    1
    36    63    62    1
    37    63    66    1
    38    97    92   am
    39    97    98    1
    40    82    83    1
    41   101    98    1
    42    92    93    2
    43   145   146    1
    44    85    83   ar
    45    85    87   ar
    46    69    67    1
    47    66    67    1
    48    83    84   ar
    49    98    99    1
    50   142   143    1
    51   142   144    1
    52    87    88   ar
    53   146   149    1
    54   146   147    1
    55   132   131    2
    56    99   100    2
    57   149   150    1
    58   106   107    2
    59   106   105    1
    60    67    68    1
    61   104   105    1
    62   105   108    1
    63    32    33    1
    64    49    48    2
    65   131   130    1
    66   147   148    2
    67   147   151   am
    68    84    86   ar
    69    88    86   ar
    70    88    89    1
    71    35    34    2
    72   151   152    1
    73    48    47    1
    74    36    33    1
    75    33    34    1
    76   108   110    1
    77   108   109    1
    78   114   113    2
    79   130   133    1
    80   130   129    1
    81   133   134    1
    82   111   112    1
    83   153   154    2
    84   153   152    1
    85   113   112    1
    86   152   155    1
    87    47    46    1
    88    47    50    1
    89   129   122   am
    90   112   115    1
    91    51    50    1
    92    51    52    1
    93   122   123    2
    94   122   121    1
    95   134   136   am
    96   134   135    2
    97   155   156    1
    98    54    52   ar
    99   120   121    1
   100    52    53   ar
   101   121   124    1
   102   115   116    1
   103    37    38    1
   104   116   117    1
   105     8     6    1
   106   156   157   ar
   107   156   158   ar
   108    41    38    1
   109    41    42    1
   110   124   125    1
   111    43    42    1
   112    43    44    1
   113    30    29    1
   114    40    39    2
   115    38    39    1
   116   117   118    1
   117   125   126    1
   118     6     5    1
   119    45    44    1
   120     7     5    1
   121   118   119    1
   122     5     2    1
   123    29    31    1
   124    29    26    1
   125    27    26    1
   126    27    28    2
   127   126   128   am
   128   126   127    2
   129    26    25    1
   130     2     3    1
   131     2     1    1
   132     4     3    2
   133     3     9   am
   134     9    10    1
   135    10    11    1
   136    22    21    1
   137    22    23    1
   138    11    12    2
   139    11    13   am
   140    21    15   am
   141    24    23    2
   142    13    14    1
   143    15    14    1
   144    15    16    2
   145    14    17    1
   146    17    18    1
   147    18    19    2
   148    18    20   am
