@<TRIPOS>MOLECULE
tmp/1q3fC00.pdb
 94 92 0 0 0
SMALL
GASTEIGER

@<TRIPOS>ATOM
      1  N         13.3140   33.2960   51.5290 N.3    62  GLY62      -0.1210
      2  CA        13.0240   33.6390   52.9060 C.3    62  GLY62       0.1956
      3  C         12.2530   34.9510   52.9040 C.2    62  GLY62       0.2612
      4  O         11.8520   35.4380   51.8410 O.2    62  GLY62      -0.2717
      5  N         12.0660   35.5340   54.0860 N.am   63  GLN63      -0.1965
      6  CA        11.3160   36.7820   54.2530 C.3    63  GLN63       0.1733
      7  C         12.1400   38.0520   54.0330 C.2    63  GLN63       0.2616
      8  O         11.8980   38.8070   53.0940 O.2    63  GLN63      -0.2715
      9  CB        10.6940   36.8050   55.6550 C.3    63  GLN63       0.0408
     10  CG         9.9560   38.0840   56.0120 C.3    63  GLN63       0.0908
     11  CD         9.4710   38.0710   57.4510 C.2    63  GLN63       0.2608
     12  OE1        8.6030   37.2800   57.8160 O.2    63  GLN63      -0.2717
     13  NE2       10.0370   38.9400   58.2760 N.am   63  GLN63      -0.0878
     14  N         13.0980   38.2970   54.9200 N.am   64  ASP64      -0.1958
     15  CA        13.9640   39.4700   54.8190 C.3    64  ASP64       0.1825
     16  C         15.2410   39.1810   55.6040 C.2    64  ASP64       0.2464
     17  O         15.2520   38.2920   56.4470 O.2    64  ASP64      -0.2730
     18  CB        13.2390   40.7280   55.3290 C.3    64  ASP64       0.1450
     19  CG        12.9920   40.7200   56.8300 C.2    64  ASP64       0.3671
     20  OD1       13.2140   41.7930   57.4410 O.co2  64  ASP64      -0.2456
     21  OD2       12.5680   39.6810   57.3910 O.co2  64  ASP64      -0.2456
     22  N         16.3240   39.9400   55.3540 N.am   65  PRO65      -0.2715
     23  CA        17.6320   39.7620   56.0130 C.3    65  PRO65       0.1536
     24  C         17.7330   39.7460   57.5360 C.2    65  PRO65       0.2598
     25  O         16.8400   40.2090   58.2530 O.2    65  PRO65      -0.2715
     26  CB        18.4850   40.8960   55.4270 C.3    65  PRO65       0.0310
     27  CG        17.7940   41.2440   54.1280 C.3    65  PRO65       0.0237
     28  CD        16.3360   41.1550   54.5190 C.3    65  PRO65       0.0939
     29  N         18.8470   39.1990   58.0180 N.am   66  TYR66      -0.1974
     30  CA        19.1240   39.1830   59.4450 C.3    66  TYR66       0.1639
     31  C         19.2230   40.6770   59.7640 C.2    66  TYR66       0.2290
     32  O         19.7460   41.4560   58.9600 O.2    66  TYR66      -0.2864
     33  CB        20.4570   38.4850   59.7320 C.3    66  TYR66       0.0560
     34  CG        20.4050   36.9760   59.6620 C.ar   66  TYR66      -0.0198
     35  CD1       19.6040   36.2470   60.5380 C.ar   66  TYR66      -0.0009
     36  CD2       21.1770   36.2730   58.7390 C.ar   66  TYR66      -0.0009
     37  CE1       19.5730   34.8490   60.4990 C.ar   66  TYR66       0.0417
     38  CE2       21.1570   34.8800   58.6930 C.ar   66  TYR66       0.0417
     39  CZ        20.3530   34.1720   59.5740 C.ar   66  TYR66       0.1957
     40  OH        20.3190   32.7910   59.5250 O.3    66  TYR66      -0.2866
     41  N         23.5840   39.6180   58.0750 N.3    72  ALA72      -0.1245
     42  CA        23.1920   39.5260   56.6670 C.3    72  ALA72       0.1562
     43  C         24.2820   39.9600   55.6960 C.2    72  ALA72       0.2260
     44  O         24.9600   40.9650   55.9250 O.2    72  ALA72      -0.2867
     45  CB        21.9430   40.3560   56.4170 C.3    72  ALA72       0.0290
     46  N         22.9050   36.6390   51.0010 N.3    75  LEU75      -0.1231
     47  CA        22.4470   35.2760   50.7480 C.3    75  LEU75       0.1693
     48  C         21.5250   34.9750   51.9190 C.2    75  LEU75       0.2592
     49  O         21.9290   35.1280   53.0720 O.2    75  LEU75      -0.2718
     50  CB        23.6270   34.2960   50.7440 C.3    75  LEU75       0.0284
     51  CG        24.7470   34.5500   49.7290 C.3    75  LEU75       0.0019
     52  CD1       25.8100   33.4690   49.8710 C.3    75  LEU75       0.0001
     53  CD2       24.1680   34.5710   48.3120 C.3    75  LEU75       0.0001
     54  N         20.2940   34.5530   51.6390 N.am   76  CYS76      -0.1956
     55  CA        19.3480   34.2920   52.7190 C.3    76  CYS76       0.1843
     56  C         19.8300   33.2550   53.7340 C.2    76  CYS76       0.2625
     57  O         20.3930   32.2190   53.3570 O.2    76  CYS76      -0.2714
     58  CB        17.9740   33.8860   52.1490 C.3    76  CYS76       0.0997
     59  SG        17.8570   32.2370   51.4020 S.3    76  CYS76      -0.0797
     60  N         19.6250   33.5710   55.0160 N.am   77  PHE77      -0.1974
     61  CA        19.9850   32.7200   56.1520 C.3    77  PHE77       0.1639
     62  C         21.4750   32.5100   56.4160 C.2    77  PHE77       0.2290
     63  O         21.8510   31.8850   57.4150 O.2    77  PHE77      -0.2864
     64  CB        19.2940   31.3680   56.0060 C.3    77  PHE77       0.0560
     65  CG        17.8050   31.4720   55.9590 C.ar   77  PHE77      -0.0200
     66  CD1       17.0850   31.8170   57.1040 C.ar   77  PHE77      -0.0042
     67  CD2       17.1210   31.2770   54.7690 C.ar   77  PHE77      -0.0042
     68  CE1       15.7050   31.9690   57.0600 C.ar   77  PHE77      -0.0003
     69  CE2       15.7360   31.4280   54.7160 C.ar   77  PHE77      -0.0003
     70  CZ        15.0280   31.7750   55.8630 C.ar   77  PHE77      -0.0000
     71  N         17.7450   31.2990   63.2320 N.3    88  SER88      -0.1217
     72  CA        17.1270   30.7040   62.0490 C.3    88  SER88       0.1889
     73  C         17.9900   29.6390   61.3910 C.2    88  SER88       0.2288
     74  O         17.4890   28.5760   61.0180 O.2    88  SER88      -0.2866
     75  CB        16.7950   31.7770   61.0080 C.3    88  SER88       0.2089
     76  OG        15.7780   32.6430   61.4710 O.3    88  SER88      -0.2183
     77  N         15.6150   36.3830   49.3480 N.3   123  ASN123     -0.1240
     78  CA        14.6480   36.8530   50.3440 C.3   123  ASN123      0.1653
     79  C         13.6290   37.6780   49.5410 C.2   123  ASN123      0.2266
     80  O         13.9830   38.2770   48.5180 O.2   123  ASN123     -0.2867
     81  CB        15.2930   37.7740   51.4010 C.3   123  ASN123      0.1155
     82  CG        15.9530   37.0090   52.5390 C.2   123  ASN123      0.2627
     83  OD1       15.4070   36.0280   53.0540 O.2   123  ASN123     -0.2716
     84  ND2       17.1250   37.4720   52.9530 N.am  123  ASN123     -0.0877
     85  N          8.5130   29.4250   58.4180 N.3   187  HIS187     -0.1241
     86  CA         9.8260   30.0660   58.4460 C.3   187  HIS187      0.1621
     87  C         10.6710   29.4100   59.5670 C.2   187  HIS187      0.2264
     88  O         10.1510   29.0850   60.6330 O.2   187  HIS187     -0.2867
     89  CB         9.6250   31.5700   58.6890 C.3   187  HIS187      0.0745
     90  CG        10.8650   32.3910   58.5140 C.ar  187  HIS187      0.0817
     91  ND1       11.8490   32.4710   59.4760 N.ar  187  HIS187     -0.2268
     92  CD2       11.2820   33.1640   57.4810 C.ar  187  HIS187      0.1154
     93  CE1       12.8190   33.2570   59.0440 C.ar  187  HIS187      0.1986
     94  NE2       12.5000   33.6900   57.8370 N.ar  187  HIS187     -0.2212
@<TRIPOS>BOND
     1    53    51    1
     2    80    79    2
     3    77    78    1
     4    79    78    1
     5    51    52    1
     6    51    50    1
     7    78    81    1
     8    50    47    1
     9    47    46    1
    10    47    48    1
    11    81    82    1
    12    59    58    1
    13     1     2    1
    14    54    48   am
    15    54    55    1
    16     4     3    2
    17    48    49    2
    18    58    55    1
    19    82    84   am
    20    82    83    2
    21    55    56    1
    22     3     2    1
    23     3     5   am
    24     8     7    2
    25    57    56    2
    26    56    60   am
    27     7     6    1
    28     7    14   am
    29     5     6    1
    30    27    28    1
    31    27    26    1
    32     6     9    1
    33    28    22    1
    34    69    67   ar
    35    69    70   ar
    36    67    65   ar
    37    15    14    1
    38    15    18    1
    39    15    16    1
    40    60    61    1
    41    18    19    1
    42    22    16   am
    43    22    23    1
    44    26    23    1
    45    16    17    2
    46     9    10    1
    47    43    44    2
    48    43    42    1
    49    70    68   ar
    50    65    64    1
    51    65    66   ar
    52    64    61    1
    53    10    11    1
    54    23    24    1
    55    61    62    1
    56    62    63    2
    57    45    42    1
    58    42    41    1
    59    19    21   ar
    60    19    20   ar
    61    68    66   ar
    62    11    12    2
    63    11    13   am
    64    92    94   ar
    65    92    90   ar
    66    24    29   am
    67    24    25    2
    68    94    93   ar
    69    29    30    1
    70    85    86    1
    71    86    89    1
    72    86    87    1
    73    90    89    1
    74    90    91   ar
    75    38    36   ar
    76    38    39   ar
    77    36    34   ar
    78    32    31    2
    79    93    91   ar
    80    30    33    1
    81    30    31    1
    82    40    39    1
    83    87    88    2
    84    39    37   ar
    85    34    33    1
    86    34    35   ar
    87    37    35   ar
    88    75    76    1
    89    75    72    1
    90    74    73    2
    91    73    72    1
    92    72    71    1
