@<TRIPOS>MOLECULE
tmp/1q3hA00.pdb
 135 129 0 0 0
SMALL
GASTEIGER

@<TRIPOS>ATOM
      1  N        158.5130   21.5990   36.8670 N.3    12  TRP12      -0.1241
      2  CA       158.9500   20.7190   37.9400 C.3    12  TRP12       0.1605
      3  C        158.5860   21.3490   39.2740 C.2    12  TRP12       0.2264
      4  O        158.9360   22.5030   39.5460 O.2    12  TRP12      -0.2867
      5  CB       160.4660   20.5080   37.8750 C.3    12  TRP12       0.0550
      6  CG       160.8890   19.4220   36.9410 C.ar   12  TRP12       0.0003
      7  CD1      161.3410   19.5680   35.6640 C.ar   12  TRP12       0.0946
      8  CD2      160.9040   18.0190   37.2140 C.ar   12  TRP12       0.0152
      9  NE1      161.6380   18.3420   35.1210 N.ar   12  TRP12      -0.2442
     10  CE2      161.3780   17.3720   36.0510 C.ar   12  TRP12       0.0810
     11  CE3      160.5610   17.2420   38.3290 C.ar   12  TRP12       0.0012
     12  CZ2      161.5200   15.9810   35.9700 C.ar   12  TRP12       0.0191
     13  CZ3      160.7020   15.8590   38.2470 C.ar   12  TRP12       0.0001
     14  CH2      161.1760   15.2440   37.0750 C.ar   12  TRP12       0.0015
     15  N        156.9660   10.1490   40.2370 N.3    20  LEU20      -0.1231
     16  CA       157.4080    9.4670   39.0210 C.3    20  LEU20       0.1693
     17  C        158.2500    8.2510   39.3780 C.2    20  LEU20       0.2591
     18  O        158.1920    7.2190   38.7080 O.2    20  LEU20      -0.2718
     19  CB       158.2430   10.4030   38.1480 C.3    20  LEU20       0.0284
     20  CG       157.4920   11.3340   37.2000 C.3    20  LEU20       0.0019
     21  CD1      158.4870   12.1720   36.4160 C.3    20  LEU20       0.0001
     22  CD2      156.6270   10.5090   36.2620 C.3    20  LEU20       0.0001
     23  N        159.0380    8.3860   40.4390 N.am   21  GLU21      -0.1979
     24  CA       159.8950    7.3040   40.9030 C.3    21  GLU21       0.1602
     25  C        159.0600    6.1770   41.5050 C.2    21  GLU21       0.2287
     26  O        159.2560    5.0040   41.1800 O.2    21  GLU21      -0.2864
     27  CB       160.8790    7.8350   41.9490 C.3    21  GLU21       0.0415
     28  CG       162.3360    7.7740   41.5210 C.3    21  GLU21       0.1163
     29  CD       163.2520    8.5290   42.4670 C.2    21  GLU21       0.3649
     30  OE1      162.7410    9.1460   43.4300 O.co2  21  GLU21      -0.2457
     31  OE2      164.4840    8.5060   42.2440 O.co2  21  GLU21      -0.2457
     32  N        169.0040   14.8350   39.8210 N.3    24  SER24      -0.1202
     33  CA       168.4990   15.4970   41.0660 C.3    24  SER24       0.2020
     34  C        167.2530   16.3480   40.7870 C.2    24  SER24       0.2618
     35  O        167.3140   17.3220   40.0290 O.2    24  SER24      -0.2717
     36  CB       169.6090   16.3740   41.6710 C.3    24  SER24       0.2103
     37  OG       169.1150   17.2220   42.6920 O.3    24  SER24      -0.2182
     38  N        166.1300   15.9790   41.4040 N.am   25  PHE25      -0.1975
     39  CA       164.8550   16.6550   41.1510 C.3    25  PHE25       0.1639
     40  C        164.8010   18.0320   41.7880 C.2    25  PHE25       0.2290
     41  O        164.1320   18.9310   41.2780 O.2    25  PHE25      -0.2864
     42  CB       163.6820   15.8250   41.6810 C.3    25  PHE25       0.0560
     43  CG       163.6020   14.4490   41.0960 C.ar   25  PHE25      -0.0200
     44  CD1      163.6820   14.2640   39.7170 C.ar   25  PHE25      -0.0042
     45  CD2      163.4630   13.3330   41.9200 C.ar   25  PHE25      -0.0042
     46  CE1      163.6290   12.9860   39.1620 C.ar   25  PHE25      -0.0003
     47  CE2      163.4090   12.0510   41.3760 C.ar   25  PHE25      -0.0003
     48  CZ       163.4920   11.8770   39.9930 C.ar   25  PHE25      -0.0000
     49  N        166.0780   20.5910   39.4230 N.3    28  LEU28      -0.1245
     50  CA       165.1170   20.8950   38.3760 C.3    28  LEU28       0.1561
     51  C        164.0500   21.8560   38.8930 C.2    28  LEU28       0.2260
     52  O        163.5380   22.6840   38.1330 O.2    28  LEU28      -0.2867
     53  CB       164.4740   19.6000   37.8630 C.3    28  LEU28       0.0270
     54  CG       165.4350   18.6420   37.1520 C.3    28  LEU28       0.0019
     55  CD1      164.7980   17.2790   36.9720 C.3    28  LEU28       0.0001
     56  CD2      165.8370   19.2370   35.8180 C.3    28  LEU28       0.0001
     57  N        158.7610   20.5420   32.6560 N.3    35  VAL35      -0.1245
     58  CA       158.7950   19.1360   32.2820 C.3    35  VAL35       0.1561
     59  C        158.0920   19.0070   30.9260 C.2    35  VAL35       0.2260
     60  O        158.5010   18.2140   30.0780 O.2    35  VAL35      -0.2867
     61  CB       158.0980   18.2520   33.3790 C.3    35  VAL35       0.0252
     62  CG1      156.6540   18.6660   33.5620 C.3    35  VAL35       0.0019
     63  CG2      158.1840   16.7870   33.0090 C.3    35  VAL35       0.0019
     64  N        162.9970    8.3510   24.7260 N.3    55  THR55      -0.1203
     65  CA       162.8790    7.9340   26.1100 C.3    55  THR55       0.1994
     66  C        163.1540    9.1450   26.9930 C.2    55  THR55       0.2618
     67  O        164.0340    9.9510   26.6960 O.2    55  THR55      -0.2717
     68  CB       163.8630    6.8010   26.4630 C.3    55  THR55       0.1784
     69  OG1      164.9040    7.3210   27.2920 O.3    55  THR55      -0.2211
     70  CG2      164.4650    6.1910   25.2120 C.3    55  THR55       0.0376
     71  N        162.3730    9.2850   28.0610 N.am   56  GLY56      -0.1942
     72  CA       162.5410   10.4150   28.9590 C.3    56  GLY56       0.2014
     73  C        162.0550   11.7330   28.3820 C.2    56  GLY56       0.2640
     74  O        162.5040   12.8000   28.7990 O.2    56  GLY56      -0.2714
     75  N        161.1320   11.6760   27.4290 N.am   57  SER57      -0.1935
     76  CA       160.6450   12.8840   26.7630 C.3    57  SER57       0.2055
     77  C        159.4700   13.5650   27.4650 C.2    57  SER57       0.2644
     78  O        159.1360   14.7020   27.1490 O.2    57  SER57      -0.2714
     79  CB       160.2550   12.5670   25.3150 C.3    57  SER57       0.2130
     80  OG       159.3790   11.4540   25.2540 O.3    57  SER57      -0.2179
     81  N        158.8390   12.8750   28.4100 N.am   58  GLY58      -0.1939
     82  CA       157.7330   13.4810   29.1330 C.3    58  GLY58       0.2014
     83  C        156.4020   12.7800   28.9140 C.2    58  GLY58       0.2639
     84  O        155.3370   13.2860   29.3050 O.2    58  GLY58      -0.2714
     85  N        156.4550   11.6080   28.2910 N.am   59  LYS59      -0.1963
     86  CA       155.2420   10.8630   27.9890 C.3    59  LYS59       0.1728
     87  C        154.4340   10.5450   29.2540 C.2    59  LYS59       0.2617
     88  O        153.2490   10.8700   29.3300 O.2    59  LYS59      -0.2715
     89  CB       155.5950    9.5770   27.2340 C.3    59  LYS59       0.0311
     90  CG       156.3000    9.8390   25.8980 C.3    59  LYS59       0.0038
     91  CD       156.6210    8.5430   25.1660 C.3    59  LYS59       0.0206
     92  CE       157.4200    7.5760   26.0370 C.3    59  LYS59       0.1093
     93  NZ       158.8390    8.0040   26.1770 N.3    59  LYS59      -0.1314
     94  N        155.0740    9.9340   30.2510 N.am   60  THR60      -0.1937
     95  CA       154.3850    9.6200   31.4980 C.3    60  THR60       0.2028
     96  C        153.9110   10.8970   32.1900 C.2    60  THR60       0.2642
     97  O        152.8260   10.9300   32.7740 O.2    60  THR60      -0.2714
     98  CB       155.3000    8.8360   32.4640 C.3    60  THR60       0.1808
     99  OG1      155.6380    7.5800   31.8790 O.3    60  THR60      -0.2208
    100  CG2      154.6030    8.5750   33.7810 C.3    60  THR60       0.0379
    101  N        154.7280   11.9450   32.1160 N.am   61  SER61      -0.1949
    102  CA       154.4420   13.1870   32.8210 C.3    61  SER61       0.1924
    103  C        153.1690   13.8190   32.2950 C.2    61  SER61       0.2314
    104  O        152.4170   14.4250   33.0570 O.2    61  SER61      -0.2863
    105  CB       155.5930   14.1850   32.6600 C.3    61  SER61       0.2116
    106  OG       156.7020   13.8250   33.4580 O.3    61  SER61      -0.2180
    107  N        152.7740    2.1170   33.6070 N.3    88  GLN88      -0.1245
    108  CA       153.8930    1.2750   33.1860 C.3    88  GLN88       0.1566
    109  C        154.1590    0.1490   34.1790 C.2    88  GLN88       0.2260
    110  O        154.3500   -0.9970   33.7810 O.2    88  GLN88      -0.2867
    111  CB       155.1690    2.1070   33.0370 C.3    88  GLN88       0.0367
    112  CG       155.2520    2.9210   31.7630 C.3    88  GLN88       0.0905
    113  CD       156.6190    3.5890   31.5710 C.2    88  GLN88       0.2608
    114  OE1      156.7760    4.7920   31.7940 O.2    88  GLN88      -0.2717
    115  NE2      157.6060    2.8070   31.1460 N.am   88  GLN88      -0.0878
    116  N        149.6510    3.6020   29.8550 N.3   167  ASP167     -0.1225
    117  CA       151.0700    3.9170   29.7140 C.3   167  ASP167      0.1805
    118  C        151.9250    2.7020   29.3810 C.2   167  ASP167      0.2598
    119  O        152.3010    1.9310   30.2610 O.2   167  ASP167     -0.2718
    120  CB       151.6120    4.5960   30.9780 C.3   167  ASP167      0.1424
    121  CG       152.9420    5.2950   30.7300 C.2   167  ASP167      0.3668
    122  OD1      153.4750    5.1650   29.6030 O.co2 167  ASP167     -0.2456
    123  OD2      153.4530    5.9740   31.6500 O.co2 167  ASP167     -0.2456
    124  N        152.2150    2.5420   28.0930 N.am  168  SER168     -0.1952
    125  CA       153.1540    1.5350   27.6060 C.3   168  SER168      0.1924
    126  C        152.8540    0.0960   28.0260 C.2   168  SER168      0.2314
    127  O        153.7420   -0.6120   28.4930 O.2   168  SER168     -0.2863
    128  CB       154.5720    1.9010   28.0420 C.3   168  SER168      0.2116
    129  OG       154.8380    3.2640   27.7670 O.3   168  SER168     -0.2180
    130  N        162.7050    2.0760   21.2010 N.3   254  SER254     -0.1217
    131  CA       162.8010    3.3360   21.9240 C.3   254  SER254      0.1889
    132  C        164.0880    4.0880   21.5890 C.2   254  SER254      0.2288
    133  O        164.0730    5.3110   21.4620 O.2   254  SER254     -0.2866
    134  CB       162.7180    3.0920   23.4330 C.3   254  SER254      0.2089
    135  OG       161.5990    3.7560   23.9900 O.3   254  SER254     -0.2183
@<TRIPOS>BOND
     1   130   131    1
     2   133   132    2
     3   132   131    1
     4   131   134    1
     5   134   135    1
     6    64    65    1
     7    91    90    1
     8    91    92    1
     9    70    68    1
    10    80    79    1
    11    79    76    1
    12    90    89    1
    13    92    93    1
    14    65    68    1
    15    65    66    1
    16    68    69    1
    17    67    66    2
    18    76    75    1
    19    76    77    1
    20    66    71   am
    21    78    77    2
    22    89    86    1
    23    75    73   am
    24    77    81   am
    25   125   126    1
    26   125   128    1
    27   125   124    1
    28   129   128    1
    29    86    85    1
    30    86    87    1
    31   126   127    2
    32    71    72    1
    33   124   118   am
    34    85    83   am
    35    73    74    2
    36    73    72    1
    37    81    82    1
    38    83    82    1
    39    83    84    2
    40    87    88    2
    41    87    94   am
    42   118   117    1
    43   118   119    2
    44   122   121   ar
    45   117   116    1
    46   117   120    1
    47    60    59    2
    48    94    95    1
    49   121   120    1
    50   121   123   ar
    51    59    58    1
    52   115   113   am
    53    95    96    1
    54    95    98    1
    55   113   112    1
    56   113   114    2
    57   112   111    1
    58    99    98    1
    59   101    96   am
    60   101   102    1
    61    96    97    2
    62    58    57    1
    63    58    61    1
    64   103   102    1
    65   103   104    2
    66    98   100    1
    67   105   102    1
    68   105   106    1
    69    63    61    1
    70   111   108    1
    71   108   107    1
    72   108   109    1
    73    61    62    1
    74   110   109    2
    75     9     7   ar
    76     9    10   ar
    77     7     6   ar
    78    56    54    1
    79    12    10   ar
    80    12    14   ar
    81    10     8   ar
    82    22    20    1
    83    21    20    1
    84     1     2    1
    85     6     8   ar
    86     6     5    1
    87    55    54    1
    88    14    13   ar
    89    54    53    1
    90    20    19    1
    91     8    11   ar
    92    53    50    1
    93     5     2    1
    94     2     3    1
    95    52    51    2
    96    19    16    1
    97    13    11   ar
    98    50    51    1
    99    50    49    1
   100    18    17    2
   101    16    17    1
   102    16    15    1
   103    46    44   ar
   104    46    48   ar
   105     3     4    2
   106    17    23   am
   107    44    43   ar
   108    32    33    1
   109    48    47   ar
   110    35    34    2
   111    23    24    1
   112    34    33    1
   113    34    38   am
   114    24    25    1
   115    24    27    1
   116    33    36    1
   117    43    42    1
   118    43    45   ar
   119    39    38    1
   120    39    42    1
   121    39    40    1
   122    26    25    2
   123    41    40    2
   124    47    45   ar
   125    28    27    1
   126    28    29    1
   127    36    37    1
   128    31    29   ar
   129    29    30   ar
