@<TRIPOS>MOLECULE
tmp/1q3nA00.pdb
 108 102 0 0 0
SMALL
GASTEIGER

@<TRIPOS>ATOM
      1  N         66.5480   91.3990   48.9160 N.3    60  LYS60      -0.1245
      2  CA        65.8320   92.6680   48.9870 C.3    60  LYS60       0.1561
      3  C         64.3610   92.3720   49.2690 C.2    60  LYS60       0.2260
      4  O         63.5440   92.2910   48.3520 O.2    60  LYS60      -0.2867
      5  CB        65.9690   93.4430   47.6740 C.3    60  LYS60       0.0271
      6  CG        67.1430   94.4130   47.6380 C.3    60  LYS60       0.0035
      7  CD        66.7000   95.8620   47.8540 C.3    60  LYS60       0.0206
      8  CE        65.9130   96.0490   49.1480 C.3    60  LYS60       0.1093
      9  NZ        66.6770   95.6510   50.3650 N.3    60  LYS60      -0.1314
     10  N         62.2140   93.9490   49.7730 N.3    62  ASN62      -0.1240
     11  CA        61.3830   95.0340   49.2770 C.3    62  ASN62       0.1653
     12  C         62.0160   95.8030   48.1250 C.2    62  ASN62       0.2266
     13  O         63.2300   96.0010   48.0810 O.2    62  ASN62      -0.2867
     14  CB        61.0520   95.9910   50.4240 C.3    62  ASN62       0.1155
     15  CG        62.2780   96.4140   51.2080 C.2    62  ASN62       0.2627
     16  OD1       62.1640   97.0430   52.2560 O.2    62  ASN62      -0.2716
     17  ND2       63.4580   96.0730   50.7020 N.am   62  ASN62      -0.0877
     18  N         66.3510   98.8720   58.9180 N.3   116  ALA116     -0.1231
     19  CA        65.6860  100.0090   59.5550 C.3   116  ALA116      0.1694
     20  C         64.1970   99.8250   59.8550 C.2   116  ALA116      0.2592
     21  O         63.7530  100.0450   60.9860 O.2   116  ALA116     -0.2718
     22  CB        65.8820  101.2630   58.7040 C.3   116  ALA116      0.0304
     23  N         63.4310   99.4360   58.8400 N.am  117  PHE117     -0.1976
     24  CA        61.9920   99.2410   58.9890 C.3   117  PHE117      0.1639
     25  C         61.6540   98.0640   59.8950 C.2   117  PHE117      0.2290
     26  O         60.4850   97.8070   60.1860 O.2   117  PHE117     -0.2864
     27  CB        61.3340   99.0310   57.6200 C.3   117  PHE117      0.0560
     28  CG        61.5930  100.1420   56.6350 C.ar  117  PHE117     -0.0200
     29  CD1       61.8060  101.4460   57.0660 C.ar  117  PHE117     -0.0042
     30  CD2       61.5900   99.8840   55.2680 C.ar  117  PHE117     -0.0042
     31  CE1       62.0120  102.4720   56.1510 C.ar  117  PHE117     -0.0003
     32  CE2       61.7940  100.9070   54.3440 C.ar  117  PHE117     -0.0003
     33  CZ        62.0050  102.2010   54.7870 C.ar  117  PHE117     -0.0000
     34  N         70.4120   99.8240   62.1530 N.3   138  LYS138     -0.1245
     35  CA        70.1020  100.9470   61.2860 C.3   138  LYS138      0.1561
     36  C         69.0410  101.7550   61.9850 C.2   138  LYS138      0.2260
     37  O         68.1070  101.2020   62.5440 O.2   138  LYS138     -0.2867
     38  CB        69.6070  100.4520   59.9320 C.3   138  LYS138      0.0271
     39  CG        70.7350   99.9250   59.0690 C.3   138  LYS138      0.0035
     40  CD        71.4050  101.0670   58.3270 C.3   138  LYS138      0.0206
     41  CE        71.0020  101.0540   56.8690 C.3   138  LYS138      0.1093
     42  NZ        69.5700  100.6650   56.7070 N.3   138  LYS138     -0.1314
     43  N         64.2370  106.5160   59.8310 N.3   141  GLN141     -0.1245
     44  CA        64.1270  107.9440   59.5770 C.3   141  GLN141      0.1566
     45  C         63.0310  108.5640   60.4100 C.2   141  GLN141      0.2260
     46  O         63.0070  109.7750   60.6240 O.2   141  GLN141     -0.2867
     47  CB        63.8050  108.2050   58.1140 C.3   141  GLN141      0.0367
     48  CG        64.4050  107.2140   57.1650 C.3   141  GLN141      0.0905
     49  CD        63.4660  106.0510   56.8920 C.2   141  GLN141      0.2608
     50  OE1       62.4090  106.2320   56.2800 O.2   141  GLN141     -0.2717
     51  NE2       63.8400  104.8480   57.3590 N.am  141  GLN141     -0.0878
     52  N         70.9740  107.1720   59.1970 N.3   168  ARG168     -0.1245
     53  CA        70.7290  107.3640   57.7610 C.3   168  ARG168      0.1563
     54  C         69.8810  108.6020   57.4750 C.2   168  ARG168      0.2260
     55  O         69.3470  108.7510   56.3800 O.2   168  ARG168     -0.2867
     56  CB        70.0830  106.1090   57.1440 C.3   168  ARG168      0.0307
     57  CG        68.9850  105.4510   57.9650 C.3   168  ARG168      0.0489
     58  CD        67.6320  106.1490   57.8630 C.3   168  ARG168      0.2205
     59  NE        66.7840  105.6100   56.7970 N.pl3 168  ARG168     -0.0865
     60  CZ        66.8440  105.9790   55.5190 C.cat 168  ARG168      0.5346
     61  NH1       67.7160  106.8940   55.1240 N.pl3 168  ARG168      0.1354
     62  NH2       66.0190  105.4410   54.6350 N.pl3 168  ARG168      0.1354
     63  N         65.0410  113.4530   53.1370 N.3   177  LEU177     -0.1245
     64  CA        65.7720  113.1790   54.3540 C.3   177  LEU177      0.1561
     65  C         66.7350  114.3300   54.6320 C.2   177  LEU177      0.2260
     66  O         67.1290  115.0640   53.7240 O.2   177  LEU177     -0.2867
     67  CB        66.5830  111.8880   54.2160 C.3   177  LEU177      0.0270
     68  CG        65.8660  110.5380   54.1150 C.3   177  LEU177      0.0019
     69  CD1       66.6810  109.5670   53.2850 C.3   177  LEU177      0.0001
     70  CD2       65.6420  109.9800   55.5090 C.3   177  LEU177      0.0001
     71  N         75.5870  106.5650   57.8520 N.3   199  ASP199     -0.1239
     72  CA        75.3700  105.9540   56.5420 C.3   199  ASP199      0.1674
     73  C         75.0220  107.0600   55.5450 C.2   199  ASP199      0.2266
     74  O         73.8730  107.4800   55.4370 O.2   199  ASP199     -0.2867
     75  CB        74.2360  104.9400   56.6140 C.3   199  ASP199      0.1410
     76  CG        74.0810  104.1340   55.3330 C.2   199  ASP199      0.3668
     77  OD1       74.8460  104.3580   54.3670 O.co2 199  ASP199     -0.2456
     78  OD2       73.1850  103.2730   55.2930 O.co2 199  ASP199     -0.2456
     79  N         72.8990  105.9800   52.0170 N.3   202  HIS202     -0.1244
     80  CA        71.5200  105.7210   52.3590 C.3   202  HIS202      0.1581
     81  C         70.9860  106.7390   53.3470 C.2   202  HIS202      0.2261
     82  O         70.0210  106.4630   54.0550 O.2   202  HIS202     -0.2867
     83  CB        71.3740  104.3180   52.9470 C.3   202  HIS202      0.0531
     84  CG        70.5930  103.3700   52.0870 C.3   202  HIS202      0.1263
     85  ND1       70.1400  102.1510   52.5300 N.2   202  HIS202     -0.2541
     86  CD2       70.1500  103.4900   50.8070 C.3   202  HIS202      0.1147
     87  CE1       69.4490  101.5560   51.5720 C.2   202  HIS202      0.1588
     88  NE2       69.4430  102.3550   50.5150 N.pl3 202  HIS202     -0.2892
     89  N         69.3640  108.9560   49.7910 N.3   205  GLN205     -0.1245
     90  CA        68.4100  108.2360   48.9530 C.3   205  GLN205      0.1566
     91  C         69.0760  107.6840   47.6900 C.2   205  GLN205      0.2260
     92  O         68.4700  107.6530   46.6100 O.2   205  GLN205     -0.2867
     93  CB        67.2520  109.1630   48.5640 C.3   205  GLN205      0.0367
     94  CG        66.5330  109.7960   49.7450 C.3   205  GLN205      0.0905
     95  CD        65.8360  111.0980   49.3710 C.2   205  GLN205      0.2608
     96  OE1       66.4850  112.0690   48.9640 O.2   205  GLN205     -0.2717
     97  NE2       64.5090  111.1220   49.5040 N.am  205  GLN205     -0.0878
     98  N         66.6380  103.3030   45.5540 N.3   239  GLY239     -0.1210
     99  CA        66.9500  102.8300   46.8850 C.3   239  GLY239      0.1940
    100  C         67.9470  103.8710   47.3690 C.2   239  GLY239      0.2454
    101  O         67.6040  105.0540   47.4120 O.2   239  GLY239     -0.2732
    102  N         69.1770  103.4850   47.7400 N.am  240  PRO240     -0.2711
    103  CA        70.1470  104.4870   48.2010 C.3   240  PRO240      0.1419
    104  C         70.8200  105.1310   46.9920 C.2   240  PRO240      0.2269
    105  O         70.3460  104.9800   45.8720 O.2   240  PRO240     -0.2865
    106  CB        71.1360  103.6640   49.0190 C.3   240  PRO240      0.0494
    107  CG        70.3630  102.4350   49.4050 C.3   240  PRO240      0.0979
    108  CD        69.5840  102.1360   48.1600 C.3   240  PRO240      0.1136
@<TRIPOS>BOND
     1    98    99    1
     2   105   104    2
     3    92    91    2
     4    99   100    1
     5   104   103    1
     6   100   101    2
     7   100   102   am
     8     6     5    1
     9     6     7    1
    10     5     2    1
    11    91    90    1
    12   102   108    1
    13   102   103    1
    14     7     8    1
    15    13    12    2
    16    12    11    1
    17   108   107    1
    18   103   106    1
    19     4     3    2
    20    93    90    1
    21    93    94    1
    22     1     2    1
    23    90    89    1
    24    96    95    2
    25     2     3    1
    26   106   107    1
    27     8     9    1
    28    11    10    1
    29    11    14    1
    30    95    97   am
    31    95    94    1
    32   107    88    1
    33   107    86    1
    34    14    15    1
    35    88    86    1
    36    88    87    1
    37    17    15   am
    38    86    84    1
    39    15    16    2
    40    87    85    2
    41    79    80    1
    42    84    85    1
    43    84    83    1
    44    80    83    1
    45    80    81    1
    46    63    64    1
    47    69    68    1
    48    81    82    2
    49    66    65    2
    50    68    67    1
    51    68    70    1
    52    67    64    1
    53    32    33   ar
    54    32    30   ar
    55    64    65    1
    56    77    76   ar
    57    62    60    1
    58    33    31   ar
    59    61    60    1
    60    30    28   ar
    61    78    76   ar
    62    76    75    1
    63    74    73    2
    64    60    59    2
    65    73    72    1
    66    31    29   ar
    67    50    49    2
    68    55    54    2
    69    72    75    1
    70    72    71    1
    71    28    29   ar
    72    28    27    1
    73    42    41    1
    74    59    58    1
    75    41    40    1
    76    49    48    1
    77    49    51   am
    78    56    53    1
    79    56    57    1
    80    48    47    1
    81    54    53    1
    82    27    24    1
    83    53    52    1
    84    58    57    1
    85    47    44    1
    86    40    39    1
    87    22    19    1
    88    23    24    1
    89    23    20   am
    90    18    19    1
    91    24    25    1
    92    39    38    1
    93    19    20    1
    94    44    43    1
    95    44    45    1
    96    20    21    2
    97    25    26    2
    98    38    35    1
    99    45    46    2
   100    35    36    1
   101    35    34    1
   102    36    37    2
