@<TRIPOS>MOLECULE
tmp/1q3pB00.pdb
 153 148 0 0 0
SMALL
GASTEIGER

@<TRIPOS>ATOM
      1  N          8.2590  -14.5020    8.7790 N.3    15  LYS15      -0.1245
      2  CA         7.7860  -15.1040    7.5400 C.3    15  LYS15       0.1561
      3  C          7.8470  -16.6300    7.5890 C.2    15  LYS15       0.2260
      4  O          8.4050  -17.2170    8.5210 O.2    15  LYS15      -0.2867
      5  CB         8.6440  -14.5980    6.3760 C.3    15  LYS15       0.0271
      6  CG        10.1090  -15.0100    6.4960 C.3    15  LYS15       0.0035
      7  CD        10.9510  -14.4570    5.3660 C.3    15  LYS15       0.0206
      8  CE        12.3330  -15.0830    5.3560 C.3    15  LYS15       0.1093
      9  NZ        12.2750  -16.5370    5.0150 N.3    15  LYS15      -0.1314
     10  N          9.7920  -14.6440    1.3500 N.3    20  GLY20      -0.1210
     11  CA        10.7040  -13.5650    1.6790 C.3    20  GLY20       0.1956
     12  C         10.0320  -12.5760    2.6220 C.2    20  GLY20       0.2612
     13  O          8.8210  -12.6550    2.8560 O.2    20  GLY20      -0.2717
     14  N         10.8040  -11.6540    3.1860 N.am   21  PHE21      -0.1962
     15  CA        10.2290  -10.6640    4.0850 C.3    21  PHE21       0.1771
     16  C          9.4200   -9.6770    3.2570 C.2    21  PHE21       0.2620
     17  O          8.5030   -9.0170    3.7560 O.2    21  PHE21      -0.2715
     18  CB        11.3330   -9.9520    4.8690 C.3    21  PHE21       0.0574
     19  CG        11.8270  -10.7370    6.0570 C.ar   21  PHE21      -0.0200
     20  CD1       13.1710  -11.0830    6.1760 C.ar   21  PHE21      -0.0042
     21  CD2       10.9400  -11.1300    7.0610 C.ar   21  PHE21      -0.0042
     22  CE1       13.6290  -11.8110    7.2830 C.ar   21  PHE21      -0.0003
     23  CE2       11.3810  -11.8550    8.1660 C.ar   21  PHE21      -0.0003
     24  CZ        12.7270  -12.1960    8.2790 C.ar   21  PHE21      -0.0000
     25  N          9.7680   -9.5870    1.9780 N.am   22  GLY22      -0.1940
     26  CA         9.0400   -8.7060    1.0890 C.3    22  GLY22       0.2014
     27  C          9.5640   -7.2990    0.9140 C.2    22  GLY22       0.2639
     28  O          8.7710   -6.3720    0.7780 O.2    22  GLY22      -0.2714
     29  N         10.8820   -7.1240    0.9230 N.am   23  PHE23      -0.1959
     30  CA        11.4570   -5.7970    0.7270 C.3    23  PHE23       0.1771
     31  C         12.8400   -5.8550    0.1220 C.2    23  PHE23       0.2619
     32  O         13.5200   -6.8780    0.1860 O.2    23  PHE23      -0.2715
     33  CB        11.5020   -5.0080    2.0440 C.3    23  PHE23       0.0574
     34  CG        12.4110   -5.5960    3.1010 C.ar   23  PHE23      -0.0200
     35  CD1       13.7900   -5.4070    3.0450 C.ar   23  PHE23      -0.0042
     36  CD2       11.8760   -6.2930    4.1860 C.ar   23  PHE23      -0.0042
     37  CE1       14.6260   -5.9030    4.0600 C.ar   23  PHE23      -0.0003
     38  CE2       12.6990   -6.7910    5.2030 C.ar   23  PHE23      -0.0003
     39  CZ        14.0730   -6.5940    5.1400 C.ar   23  PHE23      -0.0000
     40  N         13.2420   -4.7410   -0.4750 N.am   24  VAL24      -0.1963
     41  CA        14.5490   -4.6180   -1.0970 C.3    24  VAL24       0.1727
     42  C         15.3460   -3.6590   -0.2330 C.2    24  VAL24       0.2616
     43  O         14.9140   -2.5340    0.0170 O.2    24  VAL24      -0.2715
     44  CB        14.4160   -4.0480   -2.5440 C.3    24  VAL24       0.0290
     45  CG1       15.7820   -3.6890   -3.1160 C.3    24  VAL24       0.0023
     46  CG2       13.7160   -5.0690   -3.4370 C.3    24  VAL24       0.0023
     47  N         16.4970   -4.1150    0.2380 N.am   25  LEU25      -0.1963
     48  CA        17.3600   -3.2950    1.0730 C.3    25  LEU25       0.1728
     49  C         18.3290   -2.5640    0.1470 C.2    25  LEU25       0.2616
     50  O         18.8340   -3.1410   -0.8130 O.2    25  LEU25      -0.2715
     51  CB        18.1260   -4.1890    2.0570 C.3    25  LEU25       0.0311
     52  CG        18.7960   -3.6480    3.3320 C.3    25  LEU25       0.0022
     53  CD1       20.1480   -3.0760    3.0100 C.3    25  LEU25       0.0001
     54  CD2       17.9070   -2.6130    3.9960 C.3    25  LEU25       0.0001
     55  N         18.5730   -1.2880    0.4210 N.am   26  ARG26      -0.1963
     56  CA        19.4920   -0.5240   -0.4070 C.3    26  ARG26       0.1729
     57  C         20.4360    0.3160    0.4360 C.2    26  ARG26       0.2617
     58  O         20.0610    0.8140    1.5000 O.2    26  ARG26      -0.2715
     59  CB        18.7200    0.3770   -1.3680 C.3    26  ARG26       0.0348
     60  CG        19.6280    1.1540   -2.2940 C.3    26  ARG26       0.0492
     61  CD        18.8390    2.0540   -3.2080 C.3    26  ARG26       0.2205
     62  NE        19.7350    2.9630   -3.9100 N.pl3  26  ARG26      -0.0865
     63  CZ        20.4510    2.6340   -4.9760 C.cat  26  ARG26       0.5346
     64  NH1       20.3760    1.4130   -5.4850 N.pl3  26  ARG26       0.1354
     65  NH2       21.2610    3.5270   -5.5220 N.pl3  26  ARG26       0.1354
     66  N         21.6690    0.4660   -0.0370 N.am   27  GLY27      -0.1940
     67  CA        22.6330    1.2640    0.6960 C.3    27  GLY27       0.2014
     68  C         24.0700    1.0480    0.2760 C.2    27  GLY27       0.2638
     69  O         24.3630    0.1610   -0.5130 O.2    27  GLY27      -0.2714
     70  N         24.9710    1.8660    0.8090 N.am   28  ALA28      -0.1977
     71  CA        26.3880    1.7680    0.4830 C.3    28  ALA28       0.1597
     72  C         26.9370    0.4120    0.9210 C.2    28  ALA28       0.2287
     73  O         26.8410    0.0450    2.0920 O.2    28  ALA28      -0.2864
     74  CB        27.1460    2.8820    1.1700 C.3    28  ALA28       0.0319
     75  N         23.0150    4.1900    6.7040 N.3    41  LEU41      -0.1245
     76  CA        23.5520    3.6930    5.4470 C.3    41  LEU41       0.1561
     77  C         22.6040    2.8480    4.6040 C.2    41  LEU41       0.2260
     78  O         22.6620    2.9090    3.3750 O.2    41  LEU41      -0.2867
     79  CB        24.8260    2.8890    5.7070 C.3    41  LEU41       0.0270
     80  CG        26.1360    3.4650    5.1620 C.3    41  LEU41       0.0019
     81  CD1       25.8840    4.7950    4.4710 C.3    41  LEU41       0.0001
     82  CD2       27.1240    3.6270    6.3020 C.3    41  LEU41       0.0001
     83  N         18.5520    1.4480    3.7220 N.3    43  TYR43      -0.1241
     84  CA        17.1490    1.8290    3.8250 C.3    43  TYR43       0.1605
     85  C         16.3410    0.9440    2.8950 C.2    43  TYR43       0.2264
     86  O         16.8980    0.1740    2.1170 O.2    43  TYR43      -0.2867
     87  CB        16.9790    3.3070    3.4490 C.3    43  TYR43       0.0534
     88  CG        17.6380    3.6720    2.1350 C.ar   43  TYR43      -0.0201
     89  CD1       16.9140    3.6690    0.9440 C.ar   43  TYR43      -0.0009
     90  CD2       18.9970    3.9890    2.0800 C.ar   43  TYR43      -0.0009
     91  CE1       17.5260    3.9750   -0.2750 C.ar   43  TYR43       0.0417
     92  CE2       19.6240    4.2920    0.8750 C.ar   43  TYR43       0.0417
     93  CZ        18.8880    4.2830   -0.3000 C.ar   43  TYR43       0.1957
     94  OH        19.5100    4.5760   -1.4940 O.3    43  TYR43      -0.2866
     95  N         14.6140    0.2410   -0.2070 N.3    45  GLU45      -0.1231
     96  CA        14.5350    0.6670   -1.5940 C.3    45  GLU45       0.1699
     97  C         13.0990    0.4770   -2.0860 C.2    45  GLU45       0.2592
     98  O         12.6090    1.2270   -2.9280 O.2    45  GLU45      -0.2718
     99  CB        15.5070   -0.1740   -2.4180 C.3    45  GLU45       0.0402
    100  CG        15.9570    0.4580   -3.7140 C.3    45  GLU45       0.1161
    101  CD        14.8230    0.6370   -4.6910 C.2    45  GLU45       0.3649
    102  OE1       14.2380   -0.3860   -5.1220 O.co2  45  GLU45      -0.2457
    103  OE2       14.5170    1.8030   -5.0220 O.co2  45  GLU45      -0.2457
    104  N         12.4250   -0.5300   -1.5460 N.am   46  SER46      -0.1952
    105  CA        11.0440   -0.8110   -1.9130 C.3    46  SER46       0.1924
    106  C         10.4720   -1.8230   -0.9380 C.2    46  SER46       0.2314
    107  O         11.2130   -2.5500   -0.2860 O.2    46  SER46      -0.2863
    108  CB        10.9520   -1.3540   -3.3520 C.3    46  SER46       0.2116
    109  OG        11.5440   -2.6430   -3.4900 O.3    46  SER46      -0.2180
    110  N          7.2420   -4.6970   -0.7900 N.3    48  ASP48      -0.1239
    111  CA         6.1590   -5.3780   -1.4910 C.3    48  ASP48       0.1674
    112  C          4.7760   -5.0540   -0.9590 C.2    48  ASP48       0.2266
    113  O          4.4570   -5.3260    0.1980 O.2    48  ASP48      -0.2867
    114  CB         6.3760   -6.8890   -1.4710 C.3    48  ASP48       0.1410
    115  CG         7.4900   -7.3180   -2.3910 C.2    48  ASP48       0.3668
    116  OD1        7.4750   -6.8850   -3.5610 O.co2  48  ASP48      -0.2456
    117  OD2        8.3750   -8.0840   -1.9550 O.co2  48  ASP48      -0.2456
    118  N         26.4030   -2.5490    3.4380 N.3    77  HIS77      -0.1241
    119  CA        25.2940   -3.3350    2.8970 C.3    77  HIS77       0.1621
    120  C         25.4490   -4.8500    3.0930 C.2    77  HIS77       0.2264
    121  O         24.5440   -5.5230    3.6010 O.2    77  HIS77      -0.2867
    122  CB        25.1470   -3.0280    1.4070 C.3    77  HIS77       0.0745
    123  CG        23.9120   -3.6010    0.7850 C.ar   77  HIS77       0.0817
    124  ND1       22.6570   -3.0730    0.9970 N.ar   77  HIS77      -0.2268
    125  CD2       23.7390   -4.6580   -0.0450 C.ar   77  HIS77       0.1154
    126  CE1       21.7630   -3.7760    0.3230 C.ar   77  HIS77       0.1986
    127  NE2       22.3940   -4.7440   -0.3170 N.ar   77  HIS77      -0.2212
    128  N         23.0520   -7.2220    5.4090 N.3    81  VAL81      -0.1245
    129  CA        22.2630   -8.2820    4.8040 C.3    81  VAL81       0.1561
    130  C         22.4690   -9.6060    5.5430 C.2    81  VAL81       0.2260
    131  O         21.5200  -10.3750    5.7480 O.2    81  VAL81      -0.2867
    132  CB        22.6580   -8.4640    3.3230 C.3    81  VAL81       0.0252
    133  CG1       21.9010   -9.6450    2.7140 C.3    81  VAL81       0.0019
    134  CG2       22.3530   -7.1860    2.5550 C.3    81  VAL81       0.0019
    135  N         20.5210   -9.7180    8.7970 N.3    84  ILE84      -0.1231
    136  CA        19.1130   -9.9870    8.6060 C.3    84  ILE84       0.1692
    137  C         18.9010  -11.4820    8.3970 C.2    84  ILE84       0.2591
    138  O         17.8860  -12.0330    8.8240 O.2    84  ILE84      -0.2718
    139  CB        18.5600   -9.1920    7.4200 C.3    84  ILE84       0.0266
    140  CG1       18.7420   -7.6910    7.6920 C.3    84  ILE84       0.0019
    141  CG2       17.0950   -9.5280    7.2160 C.3    84  ILE84       0.0020
    142  CD1       18.1550   -6.7690    6.6350 C.3    84  ILE84       0.0001
    143  N         19.8700  -12.1400    7.7640 N.am   85  ARG85      -0.1980
    144  CA        19.7540  -13.5680    7.5180 C.3    85  ARG85       0.1597
    145  C         20.0010  -14.3910    8.7610 C.2    85  ARG85       0.2287
    146  O         19.3860  -15.4340    8.9370 O.2    85  ARG85      -0.2864
    147  CB        20.7020  -14.0010    6.4120 C.3    85  ARG85       0.0334
    148  CG        20.1690  -13.6530    5.0500 C.3    85  ARG85       0.0492
    149  CD        21.2210  -13.8100    3.9920 C.3    85  ARG85       0.2205
    150  NE        20.7430  -13.3110    2.7100 N.pl3  85  ARG85      -0.0865
    151  CZ        21.5410  -13.0320    1.6900 C.cat  85  ARG85       0.5346
    152  NH1       22.8520  -13.2110    1.8160 N.pl3  85  ARG85       0.1354
    153  NH2       21.0330  -12.5570    0.5590 N.pl3  85  ARG85       0.1354
@<TRIPOS>BOND
     1    65    63    1
     2    64    63    1
     3   102   101   ar
     4   103   101   ar
     5    63    62    2
     6   101   100    1
     7    62    61    1
     8   100    99    1
     9   116   115   ar
    10   109   108    1
    11    46    44    1
    12   108   105    1
    13    61    60    1
    14    45    44    1
    15    98    97    2
    16    44    41    1
    17    99    96    1
    18   115   117   ar
    19   115   114    1
    20    60    59    1
    21    97    96    1
    22    97   104   am
    23   105   104    1
    24   105   106    1
    25    96    95    1
    26    94    93    1
    27   111   114    1
    28   111   112    1
    29   111   110    1
    30    59    56    1
    31    41    40    1
    32    41    42    1
    33   112   113    2
    34   106   107    2
    35    50    49    2
    36    69    68    2
    37    40    31   am
    38    56    55    1
    39    56    57    1
    40   127   125   ar
    41   127   126   ar
    42    93    91   ar
    43    93    92   ar
    44    91    89   ar
    45    42    43    2
    46    42    47   am
    47   125   123   ar
    48    66    57   am
    49    66    67    1
    50    31    32    2
    51    31    30    1
    52    49    55   am
    53    49    48    1
    54    47    48    1
    55    68    67    1
    56    68    70   am
    57   126   124   ar
    58    57    58    2
    59    71    70    1
    60    71    72    1
    61    71    74    1
    62   153   151    1
    63    30    29    1
    64    30    33    1
    65    28    27    2
    66   123   124   ar
    67   123   122    1
    68    92    90   ar
    69    27    29   am
    70    27    26    1
    71    72    73    2
    72    89    88   ar
    73    48    51    1
    74    26    25    1
    75    10    11    1
    76   122   119    1
    77    11    12    1
    78   151   152    1
    79   151   150    2
    80    25    16   am
    81    33    34    1
    82    51    52    1
    83    90    88   ar
    84    86    85    2
    85    88    87    1
    86   134   132    1
    87    12    13    2
    88    12    14   am
    89   150   149    1
    90   133   132    1
    91    85    84    1
    92   119   120    1
    93   119   118    1
    94    53    52    1
    95    35    34   ar
    96    35    37   ar
    97   120   121    2
    98    34    36   ar
    99    14    15    1
   100    16    17    2
   101    16    15    1
   102   132   129    1
   103    52    54    1
   104    78    77    2
   105    87    84    1
   106    83    84    1
   107   149   148    1
   108    37    39   ar
   109    15    18    1
   110    36    38   ar
   111    81    80    1
   112    77    76    1
   113   129   128    1
   114   129   130    1
   115    18    19    1
   116     9     8    1
   117   148   147    1
   118    39    38   ar
   119    80    79    1
   120    80    82    1
   121     8     7    1
   122     7     6    1
   123    76    79    1
   124    76    75    1
   125   130   131    2
   126    19    20   ar
   127    19    21   ar
   128    20    22   ar
   129     5     6    1
   130     5     2    1
   131   147   144    1
   132   142   140    1
   133    21    23   ar
   134   141   139    1
   135    22    24   ar
   136   139   140    1
   137   139   136    1
   138   144   143    1
   139   144   145    1
   140     2     3    1
   141     2     1    1
   142     3     4    2
   143   143   137   am
   144    23    24   ar
   145   137   136    1
   146   137   138    2
   147   136   135    1
   148   145   146    2
