@<TRIPOS>MOLECULE
tmp/1q3wB00.pdb
 137 130 0 0 0
SMALL
GASTEIGER

@<TRIPOS>ATOM
      1  N         22.2290  -23.9270   15.3330 N.3    28  ILE28      -0.1245
      2  CA        23.3670  -23.2300   14.7490 C.3    28  ILE28       0.1561
      3  C         23.3070  -21.7520   15.1040 C.2    28  ILE28       0.2260
      4  O         24.1460  -20.9620   14.6830 O.2    28  ILE28      -0.2867
      5  CB        23.3940  -23.3650   13.2070 C.3    28  ILE28       0.0252
      6  CG1       22.4880  -22.3190   12.5550 C.3    28  ILE28       0.0019
      7  CG2       22.9380  -24.7560   12.8050 C.3    28  ILE28       0.0019
      8  CD1       22.6000  -22.2830   11.0480 C.3    28  ILE28       0.0001
      9  N         17.7320  -20.9800   15.4020 N.3    36  VAL36      -0.1245
     10  CA        17.9530  -21.2460   13.9850 C.3    36  VAL36       0.1561
     11  C         18.7080  -22.5730   13.8820 C.2    36  VAL36       0.2260
     12  O         19.7910  -22.7150   14.4350 O.2    36  VAL36      -0.2867
     13  CB        18.7980  -20.1400   13.3070 C.3    36  VAL36       0.0252
     14  CG1       18.9910  -20.4740   11.8390 C.3    36  VAL36       0.0019
     15  CG2       18.1180  -18.7940   13.4530 C.3    36  VAL36       0.0019
     16  N         18.3240  -23.9640    6.3490 N.3    49  ALA49      -0.1245
     17  CA        18.2960  -23.3820    7.6780 C.3    49  ALA49       0.1562
     18  C         16.8000  -23.2810    8.0270 C.2    49  ALA49       0.2260
     19  O         15.9710  -22.9890    7.1580 O.2    49  ALA49      -0.2867
     20  CB        18.9520  -21.9910    7.6690 C.3    49  ALA49       0.0290
     21  N         14.2870  -21.4080   10.6930 N.3    51  LYS51      -0.1245
     22  CA        14.1210  -20.4220   11.7540 C.3    51  LYS51       0.1561
     23  C         12.7590  -20.6100   12.4180 C.2    51  LYS51       0.2260
     24  O         11.7190  -20.5140   11.7550 O.2    51  LYS51      -0.2867
     25  CB        14.2390  -18.9980   11.2030 C.3    51  LYS51       0.0271
     26  CG        13.7490  -17.9780   12.2110 C.3    51  LYS51       0.0035
     27  CD        14.4970  -16.6650   12.1840 C.3    51  LYS51       0.0206
     28  CE        14.1840  -15.8440   10.9570 C.3    51  LYS51       0.1093
     29  NZ        14.5900  -14.4340   11.2420 N.3    51  LYS51      -0.1314
     30  N         14.6380  -22.0140    5.0780 N.3    95  LEU95      -0.1231
     31  CA        15.4060  -21.1720    4.1780 C.3    95  LEU95       0.1693
     32  C         16.6330  -21.8780    3.6290 C.2    95  LEU95       0.2592
     33  O         17.1470  -22.8230    4.2400 O.2    95  LEU95      -0.2718
     34  CB        15.8540  -19.9400    4.9600 C.3    95  LEU95       0.0284
     35  CG        14.7200  -19.1770    5.6560 C.3    95  LEU95       0.0019
     36  CD1       15.1890  -18.6080    7.0040 C.3    95  LEU95       0.0001
     37  CD2       14.2520  -18.0690    4.7440 C.3    95  LEU95       0.0001
     38  N         17.1100  -21.4200    2.4760 N.am   96  ASP96      -0.1960
     39  CA        18.3390  -21.9830    1.9100 C.3    96  ASP96       0.1840
     40  C         19.4880  -21.7250    2.9000 C.2    96  ASP96       0.2622
     41  O         19.5350  -20.6600    3.5330 O.2    96  ASP96      -0.2715
     42  CB        18.6950  -21.3070    0.5930 C.3    96  ASP96       0.1450
     43  CG        17.9580  -21.8960   -0.5660 C.2    96  ASP96       0.3671
     44  OD1       17.6840  -23.1110   -0.5240 O.co2  96  ASP96      -0.2456
     45  OD2       17.6680  -21.1640   -1.5280 O.co2  96  ASP96      -0.2456
     46  N         20.3860  -22.6960    3.0500 N.am   97  TYR97      -0.1960
     47  CA        21.5500  -22.5340    3.9360 C.3    97  TYR97       0.1771
     48  C         22.7350  -21.9760    3.1310 C.2    97  TYR97       0.2619
     49  O         23.0210  -22.4460    2.0270 O.2    97  TYR97      -0.2715
     50  CB        21.9780  -23.8710    4.5510 C.3    97  TYR97       0.0574
     51  CG        23.1520  -23.7360    5.5040 C.ar   97  TYR97      -0.0198
     52  CD1       22.9740  -23.1870    6.7750 C.ar   97  TYR97      -0.0009
     53  CD2       24.4460  -24.1270    5.1250 C.ar   97  TYR97      -0.0009
     54  CE1       24.0420  -23.0290    7.6480 C.ar   97  TYR97       0.0417
     55  CE2       25.5320  -23.9710    5.9980 C.ar   97  TYR97       0.0417
     56  CZ        25.3190  -23.4230    7.2570 C.ar   97  TYR97       0.1957
     57  OH        26.3620  -23.2680    8.1560 O.3    97  TYR97      -0.2866
     58  N         23.4030  -20.9650    3.6710 N.am   98  VAL98      -0.1964
     59  CA        24.5610  -20.3790    2.9930 C.3    98  VAL98       0.1712
     60  C         25.7030  -20.5480    3.9960 C.2    98  VAL98       0.2458
     61  O         25.5530  -20.2160    5.1620 O.2    98  VAL98      -0.2730
     62  CB        24.3050  -18.9020    2.6370 C.3    98  VAL98       0.0289
     63  CG1       25.4470  -18.3480    1.7720 C.3    98  VAL98       0.0023
     64  CG2       22.9910  -18.7950    1.8490 C.3    98  VAL98       0.0023
     65  N         26.8630  -21.0700    3.5440 N.am   99  PRO99      -0.2716
     66  CA        28.0320  -21.3150    4.4040 C.3    99  PRO99       0.1536
     67  C         28.6920  -20.1740    5.1830 C.2    99  PRO99       0.2598
     68  O         29.1350  -20.3750    6.3050 O.2    99  PRO99      -0.2715
     69  CB        29.0380  -21.9830    3.4590 C.3    99  PRO99       0.0310
     70  CG        28.2400  -22.2740    2.1710 C.3    99  PRO99       0.0237
     71  CD        27.2430  -21.1750    2.1250 C.3    99  PRO99       0.0939
     72  N         28.7690  -18.9850    4.6110 N.am  100  GLU100     -0.1964
     73  CA        29.4520  -17.8940    5.3070 C.3   100  GLU100      0.1733
     74  C         28.6780  -16.5990    5.4380 C.2   100  GLU100      0.2617
     75  O         27.5520  -16.4780    4.9800 O.2   100  GLU100     -0.2715
     76  CB        30.7730  -17.5920    4.5820 C.3   100  GLU100      0.0429
     77  CG        31.8810  -18.5720    4.8540 C.3   100  GLU100      0.1163
     78  CD        32.2870  -18.5740    6.3190 C.2   100  GLU100      0.3649
     79  OE1       32.1920  -17.4950    6.9650 O.co2 100  GLU100     -0.2457
     80  OE2       32.7050  -19.6500    6.8210 O.co2 100  GLU100     -0.2457
     81  N         29.3140  -15.6250    6.0740 N.am  101  THR101     -0.1951
     82  CA        28.7270  -14.3080    6.2310 C.3   101  THR101      0.1897
     83  C         29.8460  -13.2680    6.0600 C.2   101  THR101      0.2313
     84  O         31.0300  -13.5570    6.2680 O.2   101  THR101     -0.2863
     85  CB        28.0770  -14.1190    7.6170 C.3   101  THR101      0.1794
     86  OG1       29.1060  -14.0080    8.6090 O.3   101  THR101     -0.2208
     87  CG2       27.1430  -15.2970    7.9520 C.3   101  THR101      0.0378
     88  N         31.7960  -12.8340    9.3230 N.3   104  ARG104     -0.1245
     89  CA        32.8630  -13.7820    9.6010 C.3   104  ARG104      0.1563
     90  C         34.0460  -13.6380    8.6620 C.2   104  ARG104      0.2260
     91  O         35.1790  -13.7260    9.0930 O.2   104  ARG104     -0.2867
     92  CB        32.3170  -15.2050    9.5680 C.3   104  ARG104      0.0307
     93  CG        31.0540  -15.3130   10.4130 C.3   104  ARG104      0.0489
     94  CD        30.8110  -16.7050   10.9070 C.3   104  ARG104      0.2205
     95  NE        31.0030  -17.7010    9.8670 N.pl3 104  ARG104     -0.0865
     96  CZ        30.9980  -19.0080   10.1100 C.cat 104  ARG104      0.5346
     97  NH1       30.8020  -19.4520   11.3540 N.pl3 104  ARG104      0.1354
     98  NH2       31.2180  -19.8700    9.1200 N.pl3 104  ARG104      0.1354
     99  N         26.4310   -9.2670    9.6290 N.3   148  GLN148     -0.1231
    100  CA        25.8380  -10.5460   10.0230 C.3   148  GLN148      0.1698
    101  C         24.6320  -10.9950    9.1860 C.2   148  GLN148      0.2592
    102  O         24.3280  -12.1780    9.1280 O.2   148  GLN148     -0.2718
    103  CB        25.4320  -10.4990   11.4950 C.3   148  GLN148      0.0381
    104  CG        26.6030  -10.2590   12.4100 C.3   148  GLN148      0.0905
    105  CD        26.1800  -10.0070   13.8400 C.2   148  GLN148      0.2608
    106  OE1       25.6780  -10.9130   14.5250 O.2   148  GLN148     -0.2717
    107  NE2       26.3650   -8.7720   14.3010 N.am  148  GLN148     -0.0878
    108  N         23.9480  -10.0520    8.5450 N.am  149  ASN149     -0.1974
    109  CA        22.7990  -10.4100    7.7200 C.3   149  ASN149      0.1688
    110  C         23.1190  -10.5110    6.2340 C.2   149  ASN149      0.2292
    111  O         22.2120  -10.4980    5.4080 O.2   149  ASN149     -0.2864
    112  CB        21.6580   -9.4260    7.9490 C.3   149  ASN149      0.1181
    113  CG        21.1070   -9.5250    9.3490 C.2   149  ASN149      0.2629
    114  OD1       21.1470  -10.5990    9.9560 O.2   149  ASN149     -0.2716
    115  ND2       20.5790   -8.4220    9.8650 N.am  149  ASN149     -0.0877
    116  N         24.7810  -13.0810    3.8260 N.3   151  LEU151     -0.1245
    117  CA        25.2980  -14.4400    3.6330 C.3   151  LEU151      0.1561
    118  C         26.1690  -14.5400    2.3920 C.2   151  LEU151      0.2260
    119  O         25.9370  -13.8510    1.4010 O.2   151  LEU151     -0.2867
    120  CB        24.1380  -15.4400    3.5600 C.3   151  LEU151      0.0270
    121  CG        23.1650  -15.3390    4.7440 C.3   151  LEU151      0.0019
    122  CD1       22.0860  -16.4190    4.6110 C.3   151  LEU151      0.0001
    123  CD2       23.9040  -15.4590    6.0760 C.3   151  LEU151      0.0001
    124  N         19.7450  -11.5290    4.2280 N.3   162  CYS162     -0.1221
    125  CA        18.8960  -12.3820    5.0290 C.3   162  CYS162      0.1808
    126  C         18.3770  -11.6440    6.2660 C.2   162  CYS162      0.2601
    127  O         18.7570  -10.4910    6.5320 O.2   162  CYS162     -0.2717
    128  CB        19.6450  -13.6630    5.4490 C.3   162  CYS162      0.0970
    129  SG        20.8030  -13.4750    6.8390 S.3   162  CYS162     -0.0800
    130  N         17.5100  -12.3440    7.0000 N.am  163  ASP163     -0.1973
    131  CA        16.8500  -11.8730    8.2180 C.3   163  ASP163      0.1709
    132  C         15.9240  -10.6870    7.9910 C.2   163  ASP163      0.2293
    133  O         16.3150   -9.5280    8.1920 O.2   163  ASP163     -0.2864
    134  CB        17.8600  -11.4890    9.3040 C.3   163  ASP163      0.1436
    135  CG        17.2130  -11.4310   10.7040 C.2   163  ASP163      0.3671
    136  OD1       15.9960  -11.1270   10.8130 O.co2 163  ASP163     -0.2456
    137  OD2       17.9160  -11.6880   11.7010 O.co2 163  ASP163     -0.2456
@<TRIPOS>BOND
     1    45    43   ar
     2    43    44   ar
     3    43    42    1
     4    42    39    1
     5   119   118    2
     6    63    62    1
     7    64    62    1
     8    39    38    1
     9    39    40    1
    10    49    48    2
    11    71    70    1
    12    71    65    1
    13    70    69    1
    14   118   117    1
    15    38    32   am
    16    62    59    1
    17    40    46   am
    18    40    41    2
    19    59    58    1
    20    59    60    1
    21    46    47    1
    22    48    58   am
    23    48    47    1
    24    69    66    1
    25    65    60   am
    26    65    66    1
    27   120   117    1
    28   120   121    1
    29    32    31    1
    30    32    33    2
    31   117   116    1
    32    47    50    1
    33    60    61    2
    34    31    34    1
    35    31    30    1
    36   124   125    1
    37    66    67    1
    38    50    51    1
    39    76    77    1
    40    76    73    1
    41   122   121    1
    42    72    67   am
    43    72    73    1
    44   121   123    1
    45    37    35    1
    46    77    78    1
    47    34    35    1
    48    75    74    2
    49   125   128    1
    50   125   126    1
    51    53    51   ar
    52    53    55   ar
    53    67    68    2
    54    73    74    1
    55   111   110    2
    56    74    81   am
    57   128   129    1
    58    51    52   ar
    59    35    36    1
    60    55    56   ar
    61    83    82    1
    62    83    84    2
    63    81    82    1
    64    82    85    1
    65   110   109    1
    66   126   127    2
    67   126   130   am
    68    78    80   ar
    69    78    79   ar
    70    16    17    1
    71    52    54   ar
    72   130   131    1
    73    19    18    2
    74    56    54   ar
    75    56    57    1
    76    85    87    1
    77    85    86    1
    78    20    17    1
    79    17    18    1
    80   109   112    1
    81   109   108    1
    82   112   113    1
    83   132   133    2
    84   132   131    1
    85   131   134    1
    86   108   101   am
    87    90    91    2
    88    90    89    1
    89    98    96    1
    90   102   101    2
    91   101   100    1
    92   134   135    1
    93    88    89    1
    94   113   115   am
    95   113   114    2
    96    92    89    1
    97    92    93    1
    98    99   100    1
    99    95    96    2
   100    95    94    1
   101   100   103    1
   102    96    97    1
   103    93    94    1
   104    21    22    1
   105   135   136   ar
   106   135   137   ar
   107    28    29    1
   108    28    27    1
   109     8     6    1
   110    25    22    1
   111    25    26    1
   112   103   104    1
   113    22    23    1
   114    24    23    2
   115    14    13    1
   116    27    26    1
   117   104   105    1
   118     6     5    1
   119     7     5    1
   120     5     2    1
   121    13    15    1
   122    13    10    1
   123   105   107   am
   124   105   106    2
   125    11    10    1
   126    11    12    2
   127    10     9    1
   128     4     3    2
   129     2     3    1
   130     2     1    1
