@<TRIPOS>MOLECULE
tmp/1q41B00.pdb
 149 140 0 0 0
SMALL
GASTEIGER

@<TRIPOS>ATOM
      1  N         22.8920  -23.3410   13.9360 N.3    28  ILE28      -0.1231
      2  CA        23.9440  -22.6010   13.2450 C.3    28  ILE28       0.1692
      3  C         23.8350  -21.1160   13.5600 C.2    28  ILE28       0.2592
      4  O         24.7180  -20.3340   13.2000 O.2    28  ILE28      -0.2718
      5  CB        23.9030  -22.7770   11.6940 C.3    28  ILE28       0.0266
      6  CG1       22.6520  -22.1240   11.1080 C.3    28  ILE28       0.0019
      7  CG2       23.9630  -24.2620   11.3290 C.3    28  ILE28       0.0020
      8  CD1       22.4890  -22.3670    9.6060 C.3    28  ILE28       0.0001
      9  N         22.7580  -20.7310   14.2400 N.am   29  GLY29      -0.1957
     10  CA        22.5650  -19.3320   14.5800 C.3    29  GLY29       0.1869
     11  C         21.5040  -19.1330   15.6470 C.2    29  GLY29       0.2309
     12  O         20.6260  -19.9770   15.8210 O.2    29  GLY29      -0.2863
     13  N         18.1220  -20.6370   14.2250 N.3    36  VAL36      -0.1245
     14  CA        18.3030  -21.0060   12.8300 C.3    36  VAL36       0.1561
     15  C         19.0390  -22.3490   12.8120 C.2    36  VAL36       0.2260
     16  O         20.1080  -22.4860   13.4060 O.2    36  VAL36      -0.2867
     17  CB        19.1200  -19.9370   12.0750 C.3    36  VAL36       0.0252
     18  CG1       19.2690  -20.3140   10.6070 C.3    36  VAL36       0.0019
     19  CG2       18.4310  -18.5870   12.2050 C.3    36  VAL36       0.0019
     20  N         18.2930  -24.1350    5.5340 N.3    49  ALA49      -0.1245
     21  CA        18.3080  -23.5720    6.8600 C.3    49  ALA49       0.1562
     22  C         16.8420  -23.4540    7.3160 C.2    49  ALA49       0.2260
     23  O         15.9630  -23.1350    6.5220 O.2    49  ALA49      -0.2867
     24  CB        18.9860  -22.1700    6.8270 C.3    49  ALA49       0.0290
     25  N         14.5300  -21.4320    9.9860 N.3    51  LYS51      -0.1245
     26  CA        14.4410  -20.3980   11.0050 C.3    51  LYS51       0.1561
     27  C         13.1190  -20.6100   11.7510 C.2    51  LYS51       0.2260
     28  O         12.0150  -20.4740   11.1850 O.2    51  LYS51      -0.2867
     29  CB        14.4940  -18.9990   10.3830 C.3    51  LYS51       0.0271
     30  CG        14.3300  -17.8890   11.3940 C.3    51  LYS51       0.0035
     31  CD        14.5310  -16.5100   10.7710 C.3    51  LYS51       0.0206
     32  CE        14.2880  -15.4270   11.8210 C.3    51  LYS51       0.1093
     33  NZ        14.4100  -14.0300   11.2840 N.3    51  LYS51      -0.1314
     34  N          7.4740  -11.1500    8.7890 N.3    63  GLU63      -0.1245
     35  CA         8.6450  -11.6090    8.0360 C.3    63  GLU63       0.1567
     36  C          8.1830  -12.5910    6.9420 C.2    63  GLU63       0.2260
     37  O          8.5840  -12.4860    5.7840 O.2    63  GLU63      -0.2867
     38  CB         9.6500  -12.2970    8.9750 C.3    63  GLU63       0.0388
     39  CG        10.9870  -12.6330    8.2840 C.3    63  GLU63       0.1160
     40  CD        12.0290  -13.3130    9.1960 C.2    63  GLU63       0.3649
     41  OE1       11.7610  -13.5890   10.3910 O.co2  63  GLU63      -0.2457
     42  OE2       13.1400  -13.5800    8.6920 O.co2  63  GLU63      -0.2457
     43  N         18.0940  -14.4870    0.2470 N.3    76  VAL76      -0.1245
     44  CA        17.8410  -15.8610    0.5970 C.3    76  VAL76       0.1561
     45  C         16.3750  -16.2570    0.2840 C.2    76  VAL76       0.2260
     46  O         15.4160  -15.5800    0.6850 O.2    76  VAL76      -0.2867
     47  CB        18.1940  -16.0860    2.0830 C.3    76  VAL76       0.0252
     48  CG1       17.0690  -15.6450    2.9690 C.3    76  VAL76       0.0019
     49  CG2       18.5380  -17.5240    2.3080 C.3    76  VAL76       0.0019
     50  N         14.5950  -22.0940    4.4210 N.3    92  LEU92      -0.1231
     51  CA        15.2820  -21.1940    3.5070 C.3    92  LEU92       0.1693
     52  C         16.5730  -21.7640    2.9170 C.2    92  LEU92       0.2592
     53  O         17.0630  -22.7910    3.3980 O.2    92  LEU92      -0.2718
     54  CB        15.6240  -19.9410    4.3040 C.3    92  LEU92       0.0284
     55  CG        14.4460  -19.2070    4.9440 C.3    92  LEU92       0.0019
     56  CD1       14.7580  -18.8030    6.3700 C.3    92  LEU92       0.0001
     57  CD2       14.1380  -17.9980    4.0830 C.3    92  LEU92       0.0001
     58  N         17.1210  -21.0860    1.8960 N.am   93  ASP93      -0.1960
     59  CA        18.4070  -21.4960    1.3030 C.3    93  ASP93       0.1840
     60  C         19.4410  -21.4730    2.4520 C.2    93  ASP93       0.2622
     61  O         19.3750  -20.6340    3.3660 O.2    93  ASP93      -0.2715
     62  CB        18.9790  -20.4880    0.2780 C.3    93  ASP93       0.1450
     63  CG        18.1660  -20.3400   -0.9900 C.2    93  ASP93       0.3671
     64  OD1       17.6190  -21.3550   -1.5160 O.co2  93  ASP93      -0.2456
     65  OD2       18.1260  -19.1650   -1.4790 O.co2  93  ASP93      -0.2456
     66  N         20.3890  -22.3950    2.3950 N.am   94  TYR94      -0.1960
     67  CA        21.4820  -22.4290    3.3560 C.3    94  TYR94       0.1771
     68  C         22.7260  -21.8920    2.6100 C.2    94  TYR94       0.2619
     69  O         22.9670  -22.2530    1.4660 O.2    94  TYR94      -0.2715
     70  CB        21.7390  -23.8600    3.8210 C.3    94  TYR94       0.0574
     71  CG        23.0520  -24.0000    4.5400 C.ar   94  TYR94      -0.0198
     72  CD1       23.2110  -23.5210    5.8370 C.ar   94  TYR94      -0.0009
     73  CD2       24.1460  -24.5600    3.9020 C.ar   94  TYR94      -0.0009
     74  CE1       24.4250  -23.5960    6.4830 C.ar   94  TYR94       0.0417
     75  CE2       25.3830  -24.6390    4.5400 C.ar   94  TYR94       0.0417
     76  CZ        25.5130  -24.1570    5.8220 C.ar   94  TYR94       0.1957
     77  OH        26.7330  -24.2290    6.4420 O.3    94  TYR94      -0.2866
     78  N         23.4760  -21.0010    3.2390 N.am   95  VAL95      -0.1964
     79  CA        24.6980  -20.4220    2.6490 C.3    95  VAL95       0.1712
     80  C         25.7390  -20.6730    3.7690 C.2    95  VAL95       0.2458
     81  O         25.4750  -20.3860    4.9350 O.2    95  VAL95      -0.2730
     82  CB        24.5070  -18.9020    2.3520 C.3    95  VAL95       0.0289
     83  CG1       25.7240  -18.3460    1.5900 C.3    95  VAL95       0.0023
     84  CG2       23.2570  -18.7020    1.4870 C.3    95  VAL95       0.0023
     85  N         26.9300  -21.2000    3.4240 N.am   96  PRO96      -0.2716
     86  CA        27.9140  -21.4840    4.4780 C.3    96  PRO96       0.1536
     87  C         28.7090  -20.4190    5.2270 C.2    96  PRO96       0.2598
     88  O         29.2370  -20.7180    6.2910 O.2    96  PRO96      -0.2715
     89  CB        28.7990  -22.5800    3.8490 C.3    96  PRO96       0.0310
     90  CG        28.7660  -22.2790    2.3720 C.3    96  PRO96       0.0237
     91  CD        27.3840  -21.6520    2.0910 C.3    96  PRO96       0.0939
     92  N         28.7820  -19.1900    4.7270 N.am   97  GLU97      -0.1964
     93  CA        29.5250  -18.1460    5.4400 C.3    97  GLU97       0.1733
     94  C         28.7550  -16.8270    5.5340 C.2    97  GLU97       0.2617
     95  O         27.6790  -16.6870    4.9620 O.2    97  GLU97      -0.2715
     96  CB        30.8580  -17.8700    4.7270 C.3    97  GLU97       0.0429
     97  CG        31.9480  -18.8690    5.0020 C.3    97  GLU97       0.1163
     98  CD        32.3340  -18.8880    6.4680 C.2    97  GLU97       0.3649
     99  OE1       32.1190  -17.8570    7.1570 O.co2  97  GLU97      -0.2457
    100  OE2       32.8480  -19.9330    6.9300 O.co2  97  GLU97      -0.2457
    101  N         29.3210  -15.8710    6.2620 N.am   98  THR98      -0.1951
    102  CA        28.7260  -14.5440    6.3900 C.3    98  THR98       0.1897
    103  C         29.8430  -13.5250    6.1990 C.2    98  THR98       0.2313
    104  O         31.0150  -13.8530    6.3820 O.2    98  THR98      -0.2863
    105  CB        28.0940  -14.2930    7.7780 C.3    98  THR98       0.1794
    106  OG1       29.1220  -14.2340    8.7810 O.3    98  THR98      -0.2208
    107  CG2       27.0690  -15.3710    8.1060 C.3    98  THR98       0.0378
    108  N         31.8280  -13.2720    9.4560 N.3   101  ARG101     -0.1245
    109  CA        32.8890  -14.2440    9.7240 C.3   101  ARG101      0.1563
    110  C         34.1160  -14.0680    8.8230 C.2   101  ARG101      0.2260
    111  O         35.2460  -14.1410    9.3000 O.2   101  ARG101     -0.2867
    112  CB        32.3240  -15.6530    9.6140 C.3   101  ARG101      0.0307
    113  CG        31.4690  -16.0150   10.8140 C.3   101  ARG101      0.0489
    114  CD        30.4250  -17.0600   10.4570 C.3   101  ARG101      0.2205
    115  NE        31.0020  -18.1710    9.7190 N.pl3 101  ARG101     -0.0865
    116  CZ        31.2940  -19.3600   10.2500 C.cat 101  ARG101      0.5346
    117  NH1       31.0590  -19.5940   11.5380 N.pl3 101  ARG101      0.1354
    118  NH2       31.8140  -20.3210    9.4820 N.pl3 101  ARG101      0.1354
    119  N         26.5430   -9.6080    9.8180 N.3   145  GLN145     -0.1245
    120  CA        25.9570  -10.8970   10.1730 C.3   145  GLN145      0.1566
    121  C         24.7500  -11.2800    9.3210 C.2   145  GLN145      0.2260
    122  O         24.3800  -12.4360    9.2960 O.2   145  GLN145     -0.2867
    123  CB        25.5500  -10.8880   11.6540 C.3   145  GLN145      0.0367
    124  CG        26.7170  -10.7250   12.5780 C.3   145  GLN145      0.0905
    125  CD        26.2950  -10.4760   14.0170 C.2   145  GLN145      0.2608
    126  OE1       25.7910  -11.3850   14.7060 O.2   145  GLN145     -0.2717
    127  NE2       26.4860   -9.2360   14.4810 N.am  145  GLN145     -0.0878
    128  N         24.9640  -13.1390    3.8330 N.3   148  LEU148     -0.1245
    129  CA        25.4580  -14.5120    3.6250 C.3   148  LEU148      0.1561
    130  C         26.3410  -14.5850    2.3940 C.2   148  LEU148      0.2260
    131  O         26.1040  -13.9060    1.3930 O.2   148  LEU148     -0.2867
    132  CB        24.2800  -15.4960    3.4980 C.3   148  LEU148      0.0270
    133  CG        23.2280  -15.3940    4.6240 C.3   148  LEU148      0.0019
    134  CD1       22.1140  -16.4510    4.4090 C.3   148  LEU148      0.0001
    135  CD2       23.8690  -15.5710    5.9820 C.3   148  LEU148      0.0001
    136  N         19.8040  -11.6660    4.1860 N.3   159  CYS159     -0.1221
    137  CA        18.8990  -12.4920    4.9770 C.3   159  CYS159      0.1808
    138  C         18.3740  -11.7440    6.2030 C.2   159  CYS159      0.2601
    139  O         18.7630  -10.5920    6.4670 O.2   159  CYS159     -0.2717
    140  CB        19.5830  -13.7950    5.4470 C.3   159  CYS159      0.0970
    141  SG        20.7460  -13.5400    6.7790 S.3   159  CYS159     -0.0800
    142  N         17.5020  -12.4300    6.9430 N.am  160  ASP160     -0.1973
    143  CA        16.8420  -11.9310    8.1560 C.3   160  ASP160      0.1709
    144  C         15.9410  -10.7200    7.9260 C.2   160  ASP160      0.2293
    145  O         16.3580   -9.5700    8.0880 O.2   160  ASP160     -0.2864
    146  CB        17.8550  -11.5930    9.2560 C.3   160  ASP160      0.1436
    147  CG        17.1780  -11.3210   10.6120 C.2   160  ASP160      0.3671
    148  OD1       15.9170  -11.3640   10.7080 O.co2 160  ASP160     -0.2456
    149  OD2       17.9090  -11.0570   11.5890 O.co2 160  ASP160     -0.2456
@<TRIPOS>BOND
     1    64    63   ar
     2    65    63   ar
     3    63    62    1
     4    43    44    1
     5    62    59    1
     6    45    44    1
     7    45    46    2
     8    44    47    1
     9    59    58    1
    10    59    60    1
    11   131   130    2
    12    69    68    2
    13    84    82    1
    14    83    82    1
    15    58    52   am
    16    47    49    1
    17    47    48    1
    18    91    90    1
    19    91    85    1
    20    82    79    1
    21    90    89    1
    22   130   129    1
    23    66    60   am
    24    66    67    1
    25    60    61    2
    26    68    78   am
    27    68    67    1
    28    79    78    1
    29    79    80    1
    30    52    53    2
    31    52    51    1
    32    67    70    1
    33    85    80   am
    34    85    86    1
    35   132   129    1
    36   132   133    1
    37    51    54    1
    38    51    50    1
    39   129   128    1
    40    80    81    2
    41    70    71    1
    42    89    86    1
    43    73    75   ar
    44    73    71   ar
    45    57    55    1
    46   136   137    1
    47    54    55    1
    48   134   133    1
    49    86    87    1
    50    75    76   ar
    51    71    72   ar
    52   133   135    1
    53    96    97    1
    54    96    93    1
    55    92    87   am
    56    92    93    1
    57    55    56    1
    58    95    94    2
    59   137   140    1
    60   137   138    1
    61    97    98    1
    62    87    88    2
    63    93    94    1
    64   140   141    1
    65    94   101   am
    66    20    21    1
    67    37    36    2
    68    76    77    1
    69    76    74   ar
    70    72    74   ar
    71   103   104    2
    72   103   102    1
    73   138   139    2
    74   138   142   am
    75   101   102    1
    76   102   105    1
    77    98   100   ar
    78    98    99   ar
    79    23    22    2
    80    24    21    1
    81    21    22    1
    82    36    35    1
    83   142   143    1
    84   105   107    1
    85   105   106    1
    86   144   145    2
    87   144   143    1
    88    35    34    1
    89    35    38    1
    90   143   146    1
    91    39    38    1
    92    39    40    1
    93    42    40   ar
    94   110   111    2
    95   110   109    1
    96    40    41   ar
    97   146   147    1
    98   122   121    2
    99   121   120    1
   100   108   109    1
   101   118   116    1
   102     8     6    1
   103   112   109    1
   104   112   113    1
   105   115   116    2
   106   115   114    1
   107   119   120    1
   108    25    26    1
   109   120   123    1
   110   116   117    1
   111    29    26    1
   112    29    30    1
   113   114   113    1
   114    18    17    1
   115   147   148   ar
   116   147   149   ar
   117    31    30    1
   118    31    32    1
   119    26    27    1
   120     6     5    1
   121    28    27    2
   122    33    32    1
   123     7     5    1
   124   123   124    1
   125     5     2    1
   126    17    19    1
   127    17    14    1
   128   124   125    1
   129    15    14    1
   130    15    16    2
   131    14    13    1
   132     4     3    2
   133     2     3    1
   134     2     1    1
   135     3     9   am
   136   125   127   am
   137   125   126    2
   138     9    10    1
   139    10    11    1
   140    11    12    2
