@<TRIPOS>MOLECULE
tmp/1q4kA00.pdb
 185 184 0 0 0
SMALL
GASTEIGER

@<TRIPOS>ATOM
      1  N         -7.1680   -1.5380    1.4320 N.3    42  SER42      -0.1202
      2  CA        -8.0910   -2.6620    1.5590 C.3    42  SER42       0.2020
      3  C         -8.9780   -2.7630    0.3400 C.2    42  SER42       0.2619
      4  O         -9.3570   -3.8640   -0.1040 O.2    42  SER42      -0.2717
      5  CB        -8.9620   -2.4250    2.7950 C.3    42  SER42       0.2103
      6  OG        -8.5610   -3.3250    3.7840 O.3    42  SER42      -0.2182
      7  N         -9.3350   -1.5990   -0.1840 N.am   43  LYS43      -0.1965
      8  CA       -10.1120   -1.5130   -1.4200 C.3    43  LYS43       0.1728
      9  C         -9.7770   -0.2370   -2.1590 C.2    43  LYS43       0.2616
     10  O         -9.3540    0.7490   -1.5450 O.2    43  LYS43      -0.2715
     11  CB       -11.6040   -1.4930   -1.1070 C.3    43  LYS43       0.0311
     12  CG       -12.0390   -2.4550   -0.0160 C.3    43  LYS43       0.0038
     13  CD       -13.4350   -2.0700    0.4840 C.3    43  LYS43       0.0206
     14  CE       -14.0310   -3.0630    1.4530 C.3    43  LYS43       0.1093
     15  NZ       -15.4790   -3.0400    1.2380 N.3    43  LYS43      -0.1314
     16  N        -10.0560   -0.2290   -3.4630 N.am   44  TRP44      -0.1960
     17  CA        -9.8500    0.9790   -4.2600 C.3    44  TRP44       0.1771
     18  C        -10.7170    1.0130   -5.4840 C.2    44  TRP44       0.2620
     19  O        -11.1000    0.0020   -5.9970 O.2    44  TRP44      -0.2715
     20  CB        -8.3640    1.1610   -4.6710 C.3    44  TRP44       0.0590
     21  CG        -7.7960    0.0050   -5.4130 C.ar   44  TRP44       0.0006
     22  CD1       -7.1400   -1.0530   -4.8780 C.ar   44  TRP44       0.0946
     23  CD2       -7.8450   -0.2260   -6.8270 C.ar   44  TRP44       0.0152
     24  NE1       -6.7780   -1.9410   -5.8620 N.ar   44  TRP44      -0.2442
     25  CE2       -7.1930   -1.4510   -7.0740 C.ar   44  TRP44       0.0810
     26  CE3       -8.3830    0.4760   -7.9160 C.ar   44  TRP44       0.0012
     27  CZ2       -7.0670   -1.9900   -8.3490 C.ar   44  TRP44       0.0191
     28  CZ3       -8.2390   -0.0480   -9.1870 C.ar   44  TRP44       0.0001
     29  CH2       -7.5940   -1.2780   -9.3930 C.ar   44  TRP44       0.0015
     30  N        -11.0210    2.2170   -5.9390 N.am   45  VAL45      -0.1963
     31  CA       -11.7280    2.4230   -7.1800 C.3    45  VAL45       0.1727
     32  C        -11.0450    3.5770   -7.9230 C.2    45  VAL45       0.2616
     33  O        -10.8750    4.6600   -7.3790 O.2    45  VAL45      -0.2715
     34  CB       -13.2310    2.7200   -6.9260 C.3    45  VAL45       0.0290
     35  CG1      -13.9270    1.4510   -6.5710 C.3    45  VAL45       0.0023
     36  CG2      -13.4030    3.6300   -5.7920 C.3    45  VAL45       0.0023
     37  N        -10.6060    3.2870   -9.1380 N.am   46  ASP46      -0.1957
     38  CA       -10.0340    4.2630  -10.0310 C.3    46  ASP46       0.1840
     39  C        -11.0740    4.9270  -10.9370 C.2    46  ASP46       0.2622
     40  O        -11.4280    4.4050  -11.9950 O.2    46  ASP46      -0.2715
     41  CB        -8.9680    3.5810  -10.8790 C.3    46  ASP46       0.1450
     42  CG        -8.2400    4.5380  -11.7840 C.2    46  ASP46       0.3671
     43  OD1       -8.4830    5.7510  -11.7200 O.co2  46  ASP46      -0.2456
     44  OD2       -7.3960    4.1540  -12.6050 O.co2  46  ASP46      -0.2456
     45  N        -11.5640    6.0780  -10.5100 N.am   47  TYR47      -0.1974
     46  CA       -12.3650    6.9250  -11.3900 C.3    47  TYR47       0.1639
     47  C        -11.5900    8.1860  -11.7500 C.2    47  TYR47       0.2290
     48  O        -12.1030    9.2890  -11.6400 O.2    47  TYR47      -0.2864
     49  CB       -13.7180    7.2460  -10.7540 C.3    47  TYR47       0.0560
     50  CG       -14.6480    6.0380  -10.5940 C.ar   47  TYR47      -0.0198
     51  CD1      -15.7190    6.0930   -9.7130 C.ar   47  TYR47      -0.0009
     52  CD2      -14.4550    4.8520  -11.3160 C.ar   47  TYR47      -0.0009
     53  CE1      -16.5780    5.0100   -9.5480 C.ar   47  TYR47       0.0417
     54  CE2      -15.3100    3.7770  -11.1680 C.ar   47  TYR47       0.0417
     55  CZ       -16.3830    3.8650  -10.2770 C.ar   47  TYR47       0.1957
     56  OH       -17.2290    2.8030  -10.0830 O.3    47  TYR47      -0.2866
     57  N        -19.7050    3.0520   -2.3340 N.3   115  TYR115     -0.1241
     58  CA       -19.4300    2.1740   -3.4420 C.3   115  TYR115      0.1605
     59  C        -18.5770    0.9790   -3.0190 C.2   115  TYR115      0.2264
     60  O        -18.8840   -0.1580   -3.3880 O.2   115  TYR115     -0.2867
     61  CB       -18.7950    2.9190   -4.6040 C.3   115  TYR115      0.0534
     62  CG       -18.6760    2.0050   -5.7930 C.ar  115  TYR115     -0.0201
     63  CD1      -19.7420    1.8180   -6.6520 C.ar  115  TYR115     -0.0009
     64  CD2      -17.5220    1.2630   -6.0070 C.ar  115  TYR115     -0.0009
     65  CE1      -19.6500    0.9510   -7.7370 C.ar  115  TYR115      0.0417
     66  CE2      -17.4300    0.3920   -7.0710 C.ar  115  TYR115      0.0417
     67  CZ       -18.5020    0.2480   -7.9350 C.ar  115  TYR115      0.1957
     68  OH       -18.4240   -0.6140   -8.9960 O.3   115  TYR115     -0.2866
     69  N        -18.1740   -0.2840    0.0790 N.3   117  SER117     -0.1202
     70  CA       -18.8930   -1.1290    1.0430 C.3   117  SER117      0.2020
     71  C        -19.8410   -2.0850    0.3660 C.2   117  SER117      0.2619
     72  O        -19.9830   -3.2260    0.7730 O.2   117  SER117     -0.2717
     73  CB       -19.7060   -0.2710    2.0220 C.3   117  SER117      0.2103
     74  OG       -18.8620    0.6740    2.6570 O.3   117  SER117     -0.2182
     75  N        -20.4880   -1.6040   -0.6800 N.am  118  GLU118     -0.1965
     76  CA       -21.5240   -2.3640   -1.3530 C.3   118  GLU118      0.1733
     77  C        -20.9380   -3.3840   -2.3210 C.2   118  GLU118      0.2616
     78  O        -21.5520   -4.4270   -2.5640 O.2   118  GLU118     -0.2715
     79  CB       -22.4890   -1.4180   -2.0810 C.3   118  GLU118      0.0429
     80  CG       -23.3470   -0.5620   -1.1390 C.3   118  GLU118      0.1163
     81  CD       -24.4130    0.2430   -1.8750 C.2   118  GLU118      0.3649
     82  OE1      -24.4620    1.4970   -1.7050 O.co2 118  GLU118     -0.2457
     83  OE2      -25.2130   -0.3770   -2.6250 O.co2 118  GLU118     -0.2457
     84  N        -19.7660   -3.1030   -2.8890 N.am  119  HIS119     -0.1959
     85  CA       -19.3270   -3.8570   -4.0630 C.3   119  HIS119      0.1787
     86  C        -17.9920   -4.5960   -3.9270 C.2   119  HIS119      0.2620
     87  O        -17.6880   -5.4320   -4.7630 O.2   119  HIS119     -0.2715
     88  CB       -19.2700   -2.9270   -5.2880 C.3   119  HIS119      0.0785
     89  CG       -20.6070   -2.5510   -5.8500 C.ar  119  HIS119      0.0821
     90  ND1      -20.8160   -2.3650   -7.2010 N.ar  119  HIS119     -0.2267
     91  CD2      -21.8010   -2.3230   -5.2580 C.ar  119  HIS119      0.1154
     92  CE1      -22.0790   -2.0380   -7.4130 C.ar  119  HIS119      0.1986
     93  NE2      -22.7000   -2.0080   -6.2490 N.ar  119  HIS119     -0.2212
     94  N        -17.1900   -4.3100   -2.9050 N.am  120  LEU120     -0.1963
     95  CA       -15.7830   -4.7520   -2.9350 C.3   120  LEU120      0.1728
     96  C        -15.2780   -5.4520   -1.6820 C.2   120  LEU120      0.2616
     97  O        -15.5180   -5.0110   -0.5690 O.2   120  LEU120     -0.2715
     98  CB       -14.8500   -3.5790   -3.2740 C.3   120  LEU120      0.0311
     99  CG       -15.2170   -2.7170   -4.4800 C.3   120  LEU120      0.0022
    100  CD1      -14.3100   -1.4830   -4.5210 C.3   120  LEU120      0.0001
    101  CD2      -15.1150   -3.4720   -5.7490 C.3   120  LEU120      0.0001
    102  N        -14.5540   -6.5440   -1.8970 N.am  121  LEU121     -0.1977
    103  CA       -13.9140   -7.3150   -0.8280 C.3   121  LEU121      0.1596
    104  C        -12.8060   -6.5380   -0.1110 C.2   121  LEU121      0.2287
    105  O        -12.0820   -5.7840   -0.7360 O.2   121  LEU121     -0.2864
    106  CB       -13.3010   -8.5820   -1.4410 C.3   121  LEU121      0.0297
    107  CG       -12.7990   -9.6980   -0.5330 C.3   121  LEU121      0.0022
    108  CD1      -13.9670  -10.4110    0.1750 C.3   121  LEU121      0.0001
    109  CD2      -11.9820  -10.7130   -1.3370 C.3   121  LEU121      0.0001
    110  N         -9.3060   -6.6070    1.3350 N.3   123  ALA123     -0.1245
    111  CA        -8.0400   -7.3390    1.3640 C.3   123  ALA123      0.1562
    112  C         -7.5240   -7.3610    2.7840 C.2   123  ALA123      0.2260
    113  O         -7.6800   -6.3940    3.5230 O.2   123  ALA123     -0.2867
    114  CB        -7.0070   -6.7210    0.4430 C.3   123  ALA123      0.0290
    115  N         -1.0320    2.6130  -12.2040 N.3   146  ARG146     -0.1245
    116  CA        -1.0920    1.2110  -12.5890 C.3   146  ARG146      0.1563
    117  C         -0.5700    0.9230  -13.9850 C.2   146  ARG146      0.2260
    118  O         -0.6770    1.7440  -14.8810 O.2   146  ARG146     -0.2867
    119  CB        -2.4850    0.6520  -12.4020 C.3   146  ARG146      0.0307
    120  CG        -3.5310    1.2900  -13.2160 C.3   146  ARG146      0.0489
    121  CD        -4.7470    0.4240  -13.3170 C.3   146  ARG146      0.2205
    122  NE        -5.5740    0.9080  -14.4190 N.pl3 146  ARG146     -0.0865
    123  CZ        -6.6140    1.6560  -14.2370 C.cat 146  ARG146      0.5346
    124  NH1       -6.9840    1.9570  -12.9960 N.pl3 146  ARG146      0.1354
    125  NH2       -7.2970    2.0870  -15.2690 N.pl3 146  ARG146      0.1354
    126  N         -0.4810   -4.4190   -5.7120 N.3   163  ASN163     -0.1225
    127  CA        -1.5210   -5.4210   -5.8820 C.3   163  ASN163      0.1785
    128  C         -1.4120   -5.8990   -7.3320 C.2   163  ASN163      0.2597
    129  O         -1.5610   -5.1040   -8.2640 O.2   163  ASN163     -0.2718
    130  CB        -2.9180   -4.8240   -5.6910 C.3   163  ASN163      0.1169
    131  CG        -3.2660   -4.4920   -4.2560 C.2   163  ASN163      0.2627
    132  OD1       -4.4700   -4.2260   -3.9630 O.2   163  ASN163     -0.2716
    133  ND2       -2.2740   -4.4500   -3.3580 N.am  163  ASN163     -0.0877
    134  N         -1.1220   -7.1790   -7.5110 N.am  164  PHE164     -0.1962
    135  CA        -1.0430   -7.7760   -8.8280 C.3   164  PHE164      0.1771
    136  C         -2.4170   -8.2770   -9.2700 C.2   164  PHE164      0.2619
    137  O         -3.1050   -8.9560   -8.5200 O.2   164  PHE164     -0.2715
    138  CB        -0.0070   -8.9180   -8.8020 C.3   164  PHE164      0.0574
    139  CG         1.4130   -8.4350   -8.5750 C.ar  164  PHE164     -0.0200
    140  CD1        1.9800   -8.4550   -7.3070 C.ar  164  PHE164     -0.0042
    141  CD2        2.1660   -7.9560   -9.6300 C.ar  164  PHE164     -0.0042
    142  CE1        3.2720   -8.0220   -7.0960 C.ar  164  PHE164     -0.0003
    143  CE2        3.4830   -7.5220   -9.4240 C.ar  164  PHE164     -0.0003
    144  CZ         4.0260   -7.5500   -8.1450 C.ar  164  PHE164     -0.0000
    145  N         -2.8030   -7.9210  -10.4850 N.am  165  PHE165     -0.1974
    146  CA        -4.1330   -8.2200  -11.0180 C.3   165  PHE165      0.1639
    147  C         -4.3570   -9.6980  -11.3800 C.2   165  PHE165      0.2290
    148  O         -5.3740  -10.2730  -11.0320 O.2   165  PHE165     -0.2864
    149  CB        -4.4050   -7.3860  -12.2810 C.3   165  PHE165      0.0560
    150  CG        -4.3590   -5.9040  -12.0730 C.ar  165  PHE165     -0.0200
    151  CD1       -3.6480   -5.0990  -12.9470 C.ar  165  PHE165     -0.0042
    152  CD2       -5.0480   -5.3030  -11.0400 C.ar  165  PHE165     -0.0042
    153  CE1       -3.6140   -3.7240  -12.7940 C.ar  165  PHE165     -0.0003
    154  CE2       -5.0100   -3.9080  -10.8680 C.ar  165  PHE165     -0.0003
    155  CZ        -4.2960   -3.1230  -11.7540 C.ar  165  PHE165     -0.0000
    156  N         -4.1850  -11.8820   -8.0020 N.3   168  HIS168     -0.1241
    157  CA        -4.6080  -11.2290   -6.7670 C.3   168  HIS168      0.1621
    158  C         -3.6140  -11.2670   -5.6090 C.2   168  HIS168      0.2264
    159  O         -4.0230  -11.0820   -4.4790 O.2   168  HIS168     -0.2867
    160  CB        -5.9130  -11.8390   -6.2430 C.3   168  HIS168      0.0745
    161  CG        -7.0080  -11.9230   -7.2610 C.ar  168  HIS168      0.0817
    162  ND1       -7.9790  -10.9550   -7.3850 N.ar  168  HIS168     -0.2268
    163  CD2       -7.3040  -12.8740   -8.1830 C.ar  168  HIS168      0.1154
    164  CE1       -8.8270  -11.3030   -8.3340 C.ar  168  HIS168      0.1986
    165  NE2       -8.4330  -12.4550   -8.8470 N.ar  168  HIS168     -0.2212
    166  N         -0.4220   -9.7430   -3.3430 N.3   170  LYS170     -0.1245
    167  CA        -0.2230   -8.3810   -2.8380 C.3   170  LYS170      0.1561
    168  C          1.0110   -8.3060   -1.9530 C.2   170  LYS170      0.2260
    169  O          1.2070   -9.1480   -1.0780 O.2   170  LYS170     -0.2867
    170  CB        -1.4220   -7.9520   -2.0090 C.3   170  LYS170      0.0271
    171  CG        -2.7450   -7.9960   -2.7660 C.3   170  LYS170      0.0035
    172  CD        -3.8480   -7.3730   -1.9770 C.3   170  LYS170      0.0206
    173  CE        -5.1700   -7.4390   -2.7260 C.3   170  LYS170      0.1093
    174  NZ        -5.6670   -8.8340   -2.9630 N.3   170  LYS170     -0.1314
    175  N         -4.9590  -15.9580   -0.2240 N.3   187  ARG187     -0.1245
    176  CA        -5.1610  -14.9450    0.8120 C.3   187  ARG187      0.1563
    177  C         -4.4060  -15.2140    2.0980 C.2   187  ARG187      0.2260
    178  O         -4.7320  -14.6620    3.1310 O.2   187  ARG187     -0.2867
    179  CB        -6.6440  -14.7510    1.1110 C.3   187  ARG187      0.0307
    180  CG        -7.4460  -14.5990   -0.1330 C.3   187  ARG187      0.0489
    181  CD        -8.9140  -14.4230    0.0720 C.3   187  ARG187      0.2205
    182  NE        -9.5440  -14.1590   -1.2110 N.pl3 187  ARG187     -0.0865
    183  CZ       -10.8460  -13.9670   -1.3950 C.cat 187  ARG187      0.5346
    184  NH1      -11.6980  -14.0170   -0.3680 N.pl3 187  ARG187      0.1354
    185  NH2      -11.2940  -13.7260   -2.6270 N.pl3 187  ARG187      0.1354
@<TRIPOS>BOND
     1   125   123    1
     2   118   117    2
     3   122   123    2
     4   122   121    1
     5   123   124    1
     6   117   116    1
     7   121   120    1
     8   120   119    1
     9   151   153   ar
    10   151   150   ar
    11   153   155   ar
    12    44    42   ar
    13   116   119    1
    14   116   115    1
    15   149   150    1
    16   149   146    1
    17   150   152   ar
    18    40    39    2
    19    42    43   ar
    20    42    41    1
    21   155   154   ar
    22    47    48    2
    23    47    46    1
    24    46    49    1
    25    46    45    1
    26   147   148    2
    27   147   146    1
    28    52    54   ar
    29    52    50   ar
    30    54    55   ar
    31   152   154   ar
    32   146   145    1
    33    39    45   am
    34    39    38    1
    35    41    38    1
    36    49    50    1
    37    50    51   ar
    38   145   136   am
    39    55    56    1
    40    55    53   ar
    41    38    37    1
    42    51    53   ar
    43   141   143   ar
    44   141   139   ar
    45   143   144   ar
    46    29    28   ar
    47    29    27   ar
    48   136   135    1
    49   136   137    2
    50    28    26   ar
    51    37    32   am
    52    68    67    1
    53   165   164   ar
    54   165   163   ar
    55   135   138    1
    56   135   134    1
    57   138   139    1
    58   139   140   ar
    59    27    25   ar
    60   164   162   ar
    61   129   128    2
    62   163   161   ar
    63   144   142   ar
    64   156   157    1
    65    67    65   ar
    66    67    66   ar
    67    32    33    2
    68    32    31    1
    69    26    23   ar
    70    65    63   ar
    71   134   128   am
    72    92    90   ar
    73    92    93   ar
    74   162   161   ar
    75   128   127    1
    76   140   142   ar
    77   161   160    1
    78    90    89   ar
    79    31    34    1
    80    31    30    1
    81    25    23   ar
    82    25    24   ar
    83    66    64   ar
    84    34    35    1
    85    34    36    1
    86    23    21   ar
    87   157   160    1
    88   157   158    1
    89    63    62   ar
    90    93    91   ar
    91    64    62   ar
    92    19    18    2
    93    30    18   am
    94   127   126    1
    95   127   130    1
    96    24    22   ar
    97    89    88    1
    98    89    91   ar
    99    62    61    1
   100   101    99    1
   101   130   131    1
   102   158   159    2
   103    18    17    1
   104    21    22   ar
   105    21    20    1
   106    88    85    1
   107    87    86    2
   108    20    17    1
   109    61    58    1
   110   100    99    1
   111    99    98    1
   112    17    16    1
   113   131   132    2
   114   131   133   am
   115    85    86    1
   116    85    84    1
   117    86    94   am
   118    16     9   am
   119    58    59    1
   120    58    57    1
   121    60    59    2
   122   166   167    1
   123    98    95    1
   124   174   173    1
   125    95    94    1
   126    95    96    1
   127    84    77   am
   128   167   170    1
   129   167   168    1
   130   171   170    1
   131   171   172    1
   132   173   172    1
   133   185   183    1
   134    83    81   ar
   135    78    77    2
   136    77    76    1
   137     9    10    2
   138     9     8    1
   139    79    76    1
   140    79    80    1
   141   168   169    2
   142   102    96   am
   143   102   103    1
   144    81    82   ar
   145    81    80    1
   146    96    97    2
   147   106   103    1
   148   106   107    1
   149     8    11    1
   150     8     7    1
   151   183   182    2
   152   183   184    1
   153    76    75    1
   154   109   107    1
   155   182   181    1
   156    11    12    1
   157   103   104    1
   158   105   104    2
   159    75    71   am
   160   107   108    1
   161   175   176    1
   162     7     3   am
   163   180   181    1
   164   180   179    1
   165     4     3    2
   166    12    13    1
   167    69    70    1
   168     3     2    1
   169    71    72    2
   170    71    70    1
   171   114   111    1
   172    13    14    1
   173   176   179    1
   174   176   177    1
   175    70    73    1
   176    15    14    1
   177   110   111    1
   178   111   112    1
   179     1     2    1
   180     2     5    1
   181    73    74    1
   182   177   178    2
   183   112   113    2
   184     5     6    1
