@<TRIPOS>MOLECULE
tmp/1q4lA00.pdb
 153 142 0 0 0
SMALL
GASTEIGER

@<TRIPOS>ATOM
      1  N         46.4990    6.6940   30.5010 N.3    28  ILE28      -0.1231
      2  CA        45.7990    5.5820   31.1210 C.3    28  ILE28       0.1692
      3  C         44.5830    5.1310   30.3510 C.2    28  ILE28       0.2593
      4  O         43.9930    4.1250   30.7020 O.2    28  ILE28      -0.2718
      5  CB        45.3870    5.8390   32.6190 C.3    28  ILE28       0.0266
      6  CG1       44.5980    7.1250   32.7820 C.3    28  ILE28       0.0019
      7  CG2       46.6280    5.9030   33.5070 C.3    28  ILE28       0.0020
      8  CD1       44.4310    7.5060   34.2490 C.3    28  ILE28       0.0001
      9  N         44.2090    5.8510   29.2980 N.am   29  GLY29      -0.1942
     10  CA        43.0520    5.4440   28.5170 C.3    29  GLY29       0.2014
     11  C         42.1150    6.5580   28.0940 C.2    29  GLY29       0.2639
     12  O         42.3610    7.7250   28.3850 O.2    29  GLY29      -0.2714
     13  N         41.0270    6.2030   27.4160 N.am   30  ASN30      -0.1958
     14  CA        40.0520    7.1930   26.9490 C.3    30  ASN30       0.1819
     15  C         38.8810    7.4790   27.8860 C.2    30  ASN30       0.2621
     16  O         38.2120    6.5660   28.3610 O.2    30  ASN30      -0.2715
     17  CB        39.4890    6.7720   25.5880 C.3    30  ASN30       0.1195
     18  CG        40.3780    7.1810   24.4420 C.2    30  ASN30       0.2630
     19  OD1       40.2900    8.3000   23.9540 O.2    30  ASN30      -0.2716
     20  ND2       41.2510    6.2810   24.0150 N.am   30  ASN30      -0.0877
     21  N         38.6570    8.7640   28.1460 N.am   31  GLY31      -0.1954
     22  CA        37.5440    9.2090   28.9700 C.3    31  GLY31       0.1869
     23  C         36.6200    9.8550   27.9580 C.2    31  GLY31       0.2309
     24  O         37.0850   10.2340   26.8850 O.2    31  GLY31      -0.2863
     25  N         42.7330   10.5400   29.3540 N.3    36  VAL36      -0.1245
     26  CA        43.0290   10.6950   30.7530 C.3    36  VAL36       0.1561
     27  C         44.4260   10.1750   31.0290 C.2    36  VAL36       0.2260
     28  O         44.7560    9.0350   30.6850 O.2    36  VAL36      -0.2867
     29  CB        42.0080    9.9280   31.6110 C.3    36  VAL36       0.0252
     30  CG1       42.2800   10.1670   33.1010 C.3    36  VAL36       0.0019
     31  CG2       40.5960   10.3620   31.2310 C.3    36  VAL36       0.0019
     32  N         44.8790   11.9320   38.3620 N.3    49  ALA49      -0.1245
     33  CA        44.5060   11.6950   36.9780 C.3    49  ALA49       0.1562
     34  C         44.3160   13.0720   36.3730 C.2    49  ALA49       0.2260
     35  O         43.9850   14.0230   37.0700 O.2    49  ALA49      -0.2867
     36  CB        43.2120   10.8970   36.8890 C.3    49  ALA49       0.0290
     37  N         42.3890   14.6210   33.0340 N.3    51  LYS51      -0.1245
     38  CA        41.5530   14.4240   31.8620 C.3    51  LYS51       0.1561
     39  C         41.7530   15.6650   31.0120 C.2    51  LYS51       0.2260
     40  O         41.4650   16.7820   31.4410 O.2    51  LYS51      -0.2867
     41  CB        40.0880   14.2870   32.2640 C.3    51  LYS51       0.0271
     42  CG        39.1590   14.0880   31.0830 C.3    51  LYS51       0.0035
     43  CD        37.6940   14.0940   31.5010 C.3    51  LYS51       0.0206
     44  CE        36.7910   13.8930   30.2960 C.3    51  LYS51       0.1093
     45  NZ        35.3290   13.7730   30.6540 N.3    51  LYS51      -0.1314
     46  N         31.0440   20.0630   31.8770 N.3    63  GLU63      -0.1245
     47  CA        31.4780   19.0360   32.8090 C.3    63  GLU63       0.1567
     48  C         32.1700   19.7820   33.9400 C.2    63  GLU63       0.2260
     49  O         31.9750   19.4870   35.1170 O.2    63  GLU63      -0.2867
     50  CB        32.4570   18.0820   32.1270 C.3    63  GLU63       0.0388
     51  CG        32.5140   16.7110   32.7320 C.3    63  GLU63       0.1160
     52  CD        33.8730   16.0550   32.5450 C.2    63  GLU63       0.3649
     53  OE1       34.6320   16.5170   31.6670 O.co2  63  GLU63      -0.2457
     54  OE2       34.1880   15.0750   33.2730 O.co2  63  GLU63      -0.2457
     55  N         34.5460   11.2900   42.1650 N.3    76  VAL76      -0.1245
     56  CA        35.9170   11.6880   41.9230 C.3    76  VAL76       0.1561
     57  C         35.9870   13.1820   42.1660 C.2    76  VAL76       0.2260
     58  O         35.1470   13.9330   41.6850 O.2    76  VAL76      -0.2867
     59  CB        36.3440   11.3260   40.4820 C.3    76  VAL76       0.0252
     60  CG1       37.7940   11.6850   40.2540 C.3    76  VAL76       0.0019
     61  CG2       36.1800    9.8380   40.2660 C.3    76  VAL76       0.0019
     62  N         42.0510   15.2260   38.6380 N.3    95  LEU95      -0.1231
     63  CA        41.1070   14.4480   39.4390 C.3    95  LEU95       0.1693
     64  C         41.7810   13.4320   40.3460 C.2    95  LEU95       0.2592
     65  O         42.9710   13.1590   40.1990 O.2    95  LEU95      -0.2718
     66  CB        40.1960   13.6810   38.4910 C.3    95  LEU95       0.0284
     67  CG        39.6140   14.4990   37.3380 C.3    95  LEU95       0.0019
     68  CD1       39.6040   13.6900   36.0580 C.3    95  LEU95       0.0001
     69  CD2       38.2070   14.9480   37.7240 C.3    95  LEU95       0.0001
     70  N         41.0180   12.8650   41.2810 N.am   96  ASP96      -0.1960
     71  CA        41.5590   11.8240   42.1530 C.3    96  ASP96       0.1840
     72  C         41.9100   10.6560   41.2350 C.2    96  ASP96       0.2622
     73  O         41.2500   10.4390   40.2070 O.2    96  ASP96      -0.2715
     74  CB        40.5130   11.3030   43.1320 C.3    96  ASP96       0.1450
     75  CG        40.1390   12.2990   44.1930 C.2    96  ASP96       0.3671
     76  OD1       41.0500   12.9280   44.7890 O.co2  96  ASP96      -0.2456
     77  OD2       38.9180   12.4190   44.4400 O.co2  96  ASP96      -0.2456
     78  N         42.9420    9.9020   41.5860 N.am   97  TYR97      -0.1960
     79  CA        43.3200    8.7480   40.7860 C.3    97  TYR97       0.1771
     80  C         42.8770    7.5060   41.5490 C.2    97  TYR97       0.2619
     81  O         43.0720    7.4160   42.7530 O.2    97  TYR97      -0.2715
     82  CB        44.8290    8.7180   40.5710 C.3    97  TYR97       0.0574
     83  CG        45.3260    7.3880   40.0740 C.ar   97  TYR97      -0.0198
     84  CD1       45.1130    6.9850   38.7600 C.ar   97  TYR97      -0.0009
     85  CD2       45.9190    6.4810   40.9520 C.ar   97  TYR97      -0.0009
     86  CE1       45.4700    5.6960   38.3330 C.ar   97  TYR97       0.0417
     87  CE2       46.2770    5.1940   40.5390 C.ar   97  TYR97       0.0417
     88  CZ        46.0450    4.8050   39.2340 C.ar   97  TYR97       0.1957
     89  OH        46.3500    3.5140   38.8550 O.3    97  TYR97      -0.2866
     90  N         42.2380    6.5640   40.8690 N.am   98  VAL98      -0.1977
     91  CA        41.8150    5.3340   41.5300 C.3    98  VAL98       0.1596
     92  C         42.2900    4.2070   40.6080 C.2    98  VAL98       0.2287
     93  O         42.0470    4.2290   39.4010 O.2    98  VAL98      -0.2864
     94  CB        40.2730    5.3100   41.7580 C.3    98  VAL98       0.0276
     95  CG1       39.8800    4.1160   42.6240 C.3    98  VAL98       0.0022
     96  CG2       39.8350    6.5890   42.4510 C.3    98  VAL98       0.0022
     97  N         38.6290   -0.3540   38.1260 N.3   101  THR101     -0.1218
     98  CA        37.2710    0.0060   37.7320 C.3   101  THR101      0.1862
     99  C         36.4220   -1.2280   37.9770 C.2   101  THR101      0.2287
    100  O         36.9290   -2.3490   37.9860 O.2   101  THR101     -0.2866
    101  CB        37.1420    0.3700   36.2480 C.3   101  THR101      0.1770
    102  OG1       37.2400   -0.8180   35.4710 O.3   101  THR101     -0.2211
    103  CG2       38.2160    1.3420   35.8330 C.3   101  THR101      0.0375
    104  N         36.6900   -3.8690   35.0940 N.3   104  ARG104     -0.1245
    105  CA        37.8230   -4.7710   35.1000 C.3   104  ARG104      0.1563
    106  C         37.7130   -5.8460   36.1550 C.2   104  ARG104      0.2260
    107  O         38.0210   -7.0080   35.8990 O.2   104  ARG104     -0.2867
    108  CB        39.1040   -3.9760   35.3050 C.3   104  ARG104      0.0307
    109  CG        40.3640   -4.7290   34.9620 C.3   104  ARG104      0.0489
    110  CD        41.3290   -3.7660   34.3230 C.3   104  ARG104      0.2205
    111  NE        41.4920   -2.5750   35.1510 N.pl3 104  ARG104     -0.0865
    112  CZ        41.7330   -1.3570   34.6740 C.cat 104  ARG104      0.5346
    113  NH1       41.8360   -1.1600   33.3610 N.pl3 104  ARG104      0.1354
    114  NH2       41.8830   -0.3350   35.5140 N.pl3 104  ARG104      0.1354
    115  N         32.2070    0.6340   33.7920 N.3   148  GLN148     -0.1231
    116  CA        33.4290    1.3400   33.4520 C.3   148  GLN148      0.1698
    117  C         33.5750    2.7260   34.1200 C.2   148  GLN148      0.2592
    118  O         34.6770    3.2720   34.2020 O.2   148  GLN148     -0.2718
    119  CB        33.5070    1.4630   31.9320 C.3   148  GLN148      0.0381
    120  CG        34.5420    2.4070   31.3910 C.3   148  GLN148      0.0905
    121  CD        35.9530    2.0890   31.8410 C.2   148  GLN148      0.2608
    122  OE1       36.2570    0.9580   32.2470 O.2   148  GLN148     -0.2717
    123  NE2       36.8400    3.0880   31.7500 N.am  148  GLN148     -0.0878
    124  N         32.4770    3.3070   34.5970 N.am  149  ASN149     -0.1974
    125  CA        32.5750    4.6120   35.2300 C.3   149  ASN149      0.1688
    126  C         32.4670    4.4990   36.7410 C.2   149  ASN149      0.2292
    127  O         32.1350    5.4610   37.4340 O.2   149  ASN149     -0.2864
    128  CB        31.5060    5.5640   34.6890 C.3   149  ASN149      0.1181
    129  CG        31.7660    5.9840   33.2560 C.2   149  ASN149      0.2629
    130  OD1       32.9100    6.1850   32.8520 O.2   149  ASN149     -0.2716
    131  ND2       30.7010    6.1320   32.4810 N.am  149  ASN149     -0.0877
    132  N         34.8530    3.5920   39.7370 N.3   151  LEU151     -0.1245
    133  CA        36.2010    3.3050   40.2070 C.3   151  LEU151      0.1561
    134  C         36.2400    2.6660   41.6030 C.2   151  LEU151      0.2260
    135  O         35.3700    2.9190   42.4450 O.2   151  LEU151     -0.2867
    136  CB        37.0260    4.5790   40.1820 C.3   151  LEU151      0.0270
    137  CG        36.9450    5.3220   38.8430 C.3   151  LEU151      0.0019
    138  CD1       37.8760    6.5190   38.8770 C.3   151  LEU151      0.0001
    139  CD2       37.3240    4.3990   37.6880 C.3   151  LEU151      0.0001
    140  N         32.6850    8.2930   38.3120 N.3   162  CYS162     -0.1221
    141  CA        33.4880    9.2080   37.5110 C.3   162  CYS162      0.1808
    142  C         32.8930    9.4700   36.1410 C.2   162  CYS162      0.2601
    143  O         31.8120    8.9880   35.8270 O.2   162  CYS162     -0.2717
    144  CB        34.9140    8.6780   37.3540 C.3   162  CYS162      0.0970
    145  SG        34.9890    7.1430   36.4320 S.3   162  CYS162     -0.0800
    146  N         33.6270   10.2410   35.3410 N.am  163  ASP163     -0.1973
    147  CA        33.2410   10.6330   33.9860 C.3   163  ASP163      0.1709
    148  C         31.9080   11.3710   33.9080 C.2   163  ASP163      0.2293
    149  O         30.8620   10.7670   33.6640 O.2   163  ASP163     -0.2864
    150  CB        33.1860    9.4310   33.0560 C.3   163  ASP163      0.1436
    151  CG        33.4150    9.8200   31.6080 C.2   163  ASP163      0.3671
    152  OD1       33.3960   11.0340   31.3070 O.co2 163  ASP163     -0.2456
    153  OD2       33.6150    8.9110   30.7750 O.co2 163  ASP163     -0.2456
@<TRIPOS>BOND
     1    19    18    2
     2    20    18   am
     3    18    17    1
     4    17    14    1
     5    24    23    2
     6    14    13    1
     7    14    15    1
     8    13    11   am
     9    15    21   am
    10    15    16    2
    11    23    22    1
    12    11    12    2
    13    11    10    1
    14    21    22    1
    15    10     9    1
    16     9     3   am
    17    25    26    1
    18    44    45    1
    19    44    43    1
    20     3     4    2
    21     3     2    1
    22     1     2    1
    23    28    27    2
    24    26    27    1
    25    26    29    1
    26   153   151   ar
    27    39    40    2
    28    39    38    1
    29    42    43    1
    30    42    41    1
    31     2     5    1
    32    31    29    1
    33   152   151   ar
    34   120   121    1
    35   120   119    1
    36   151   150    1
    37    29    30    1
    38    53    52   ar
    39   123   121   am
    40   121   122    2
    41    38    41    1
    42    38    37    1
    43    46    47    1
    44   119   116    1
    45    50    51    1
    46    50    47    1
    47   131   129   am
    48    52    51    1
    49    52    54   ar
    50     5     6    1
    51     5     7    1
    52     6     8    1
    53    47    48    1
    54   130   129    2
    55   150   147    1
    56   129   128    1
    57   113   112    1
    58   116   115    1
    59   116   117    1
    60   149   148    2
    61   148   147    1
    62    48    49    2
    63   147   146    1
    64   117   118    2
    65   117   124   am
    66   110   109    1
    67   110   111    1
    68   124   125    1
    69   112   111    2
    70   112   114    1
    71   128   125    1
    72   109   108    1
    73   104   105    1
    74   105   108    1
    75   105   106    1
    76   125   126    1
    77   146   142   am
    78   102   101    1
    79   143   142    2
    80   103   101    1
    81   107   106    2
    82    68    67    1
    83   142   141    1
    84   101    98    1
    85    34    33    1
    86    34    35    2
    87   145   144    1
    88   126   127    2
    89    36    33    1
    90    33    32    1
    91    67    69    1
    92    67    66    1
    93   144   141    1
    94   141   140    1
    95   139   137    1
    96    98    99    1
    97    98    97    1
    98    99   100    2
    99    86    84   ar
   100    86    88   ar
   101    66    63    1
   102    62    63    1
   103    84    83   ar
   104   137   138    1
   105   137   136    1
   106    89    88    1
   107    88    87   ar
   108    93    92    2
   109    63    64    1
   110   132   133    1
   111    83    82    1
   112    83    85   ar
   113   136   133    1
   114    65    64    2
   115    73    72    2
   116   133   134    1
   117    60    59    1
   118    61    59    1
   119    64    70   am
   120    59    56    1
   121    87    85   ar
   122    82    79    1
   123    92    91    1
   124    79    80    1
   125    79    78    1
   126    90    91    1
   127    90    80   am
   128    72    78   am
   129    72    71    1
   130    70    71    1
   131    91    94    1
   132    80    81    2
   133   134   135    2
   134    58    57    2
   135    94    96    1
   136    94    95    1
   137    56    55    1
   138    56    57    1
   139    71    74    1
   140    74    75    1
   141    75    77   ar
   142    75    76   ar
