@<TRIPOS>MOLECULE
tmp/1q4nA00.pdb
 158 155 0 0 0
SMALL
GASTEIGER

@<TRIPOS>ATOM
      1  N         -2.3450   48.2690   26.2370 N.3    57  TRP57      -0.1227
      2  CA        -1.8740   49.0230   25.0700 C.3    57  TRP57       0.1737
      3  C         -1.4510   48.0550   23.9710 C.2    57  TRP57       0.2595
      4  O         -1.6580   48.3210   22.7990 O.2    57  TRP57      -0.2718
      5  CB        -0.7680   50.0390   25.4210 C.3    57  TRP57       0.0564
      6  CG         0.3840   49.4320   26.0310 C.ar   57  TRP57       0.0003
      7  CD1        0.5550   49.1780   27.3570 C.ar   57  TRP57       0.0946
      8  CD2        1.5540   48.9820   25.3770 C.ar   57  TRP57       0.0152
      9  NE1        1.7620   48.5540   27.5850 N.ar   57  TRP57      -0.2442
     10  CE2        2.4160   48.4280   26.3880 C.ar   57  TRP57       0.0810
     11  CE3        1.9910   48.9880   24.0520 C.ar   57  TRP57       0.0012
     12  CZ2        3.6940   47.8650   26.1010 C.ar   57  TRP57       0.0191
     13  CZ3        3.2500   48.4240   23.7530 C.ar   57  TRP57       0.0001
     14  CH2        4.0930   47.8760   24.7890 C.ar   57  TRP57       0.0015
     15  N         -0.9100   46.9160   24.3430 N.am   58  TRP58      -0.1976
     16  CA        -0.3300   46.0430   23.3390 C.3    58  TRP58       0.1640
     17  C         -1.3410   45.2290   22.4780 C.2    58  TRP58       0.2290
     18  O         -0.9250   44.5530   21.5260 O.2    58  TRP58      -0.2864
     19  CB         0.7930   45.1880   23.9280 C.3    58  TRP58       0.0576
     20  CG         0.5610   44.6220   25.2900 C.ar   58  TRP58       0.0006
     21  CD1        1.0470   45.1180   26.4980 C.ar   58  TRP58       0.0946
     22  CD2       -0.2040   43.4330   25.6330 C.ar   58  TRP58       0.0152
     23  NE1        0.6240   44.3180   27.5390 N.ar   58  TRP58      -0.2442
     24  CE2       -0.1290   43.2760   27.0480 C.ar   58  TRP58       0.0810
     25  CE3       -0.9340   42.4800   24.8910 C.ar   58  TRP58       0.0012
     26  CZ2       -0.7530   42.2110   27.7220 C.ar   58  TRP58       0.0191
     27  CZ3       -1.5510   41.4150   25.5770 C.ar   58  TRP58       0.0001
     28  CH2       -1.4550   41.2940   26.9640 C.ar   58  TRP58       0.0015
     29  N         -1.0190   45.9730   18.7860 N.3    61  TYR61      -0.1241
     30  CA         0.0650   45.3530   18.0170 C.3    61  TYR61       0.1605
     31  C         -0.2860   43.9160   17.5500 C.2    61  TYR61       0.2264
     32  O          0.6020   43.1890   17.1170 O.2    61  TYR61      -0.2867
     33  CB         1.3540   45.4510   18.8220 C.3    61  TYR61       0.0534
     34  CG         1.7230   46.9040   18.8850 C.ar   61  TYR61      -0.0201
     35  CD1        2.3820   47.5010   17.8190 C.ar   61  TYR61      -0.0009
     36  CD2        1.2880   47.7170   19.9430 C.ar   61  TYR61      -0.0009
     37  CE1        2.6690   48.8700   17.8130 C.ar   61  TYR61       0.0417
     38  CE2        1.5910   49.0750   19.9550 C.ar   61  TYR61       0.0417
     39  CZ         2.2660   49.6460   18.8630 C.ar   61  TYR61       0.1957
     40  OH         2.5230   50.9850   18.8240 O.3    61  TYR61      -0.2866
     41  N          3.0060   40.7940   11.0930 N.3   100  HIS100     -0.1241
     42  CA         2.2400   39.8340   11.8220 C.3   100  HIS100      0.1621
     43  C          0.7960   40.1900   12.0010 C.2   100  HIS100      0.2264
     44  O          0.4100   41.3390   11.8080 O.2   100  HIS100     -0.2867
     45  CB         2.8890   39.6020   13.1900 C.3   100  HIS100      0.0745
     46  CG         3.0120   40.8270   14.0440 C.ar  100  HIS100      0.0817
     47  ND1        4.1690   41.1290   14.7130 N.ar  100  HIS100     -0.2268
     48  CD2        2.1440   41.8180   14.3510 C.ar  100  HIS100      0.1154
     49  CE1        4.0080   42.2370   15.4050 C.ar  100  HIS100      0.1986
     50  NE2        2.7780   42.6600   15.2340 N.ar  100  HIS100     -0.2212
     51  N          7.2260   36.0820   16.7070 N.3   161  LEU161     -0.1245
     52  CA         7.6540   36.9240   17.8180 C.3   161  LEU161      0.1561
     53  C          6.6580   36.7560   18.9560 C.2   161  LEU161      0.2260
     54  O          5.5490   37.2810   18.8780 O.2   161  LEU161     -0.2867
     55  CB         7.6920   38.3870   17.3690 C.3   161  LEU161      0.0270
     56  CG         7.8820   39.4910   18.4180 C.3   161  LEU161      0.0019
     57  CD1        9.1620   39.3350   19.1780 C.3   161  LEU161      0.0001
     58  CD2        7.8840   40.8210   17.7510 C.3   161  LEU161      0.0001
     59  N          3.1540   35.6690   18.0550 N.3   164  LEU164     -0.1245
     60  CA         2.4560   36.4440   17.0050 C.3   164  LEU164      0.1561
     61  C          2.5720   35.8010   15.6030 C.2   164  LEU164      0.2260
     62  O          3.6680   35.6000   15.0620 O.2   164  LEU164     -0.2867
     63  CB         2.9730   37.8790   16.9420 C.3   164  LEU164      0.0270
     64  CG         2.7990   38.7670   18.1780 C.3   164  LEU164      0.0019
     65  CD1        3.7350   39.9520   18.1150 C.3   164  LEU164      0.0001
     66  CD2        1.3730   39.2660   18.3210 C.3   164  LEU164      0.0001
     67  N          5.7980   54.6590   10.5800 N.3   194  ARG194     -0.1245
     68  CA         6.6670   53.9410   11.4920 C.3   194  ARG194      0.1563
     69  C          6.4540   52.4520   11.2030 C.2   194  ARG194      0.2260
     70  O          5.3490   51.9690   11.3530 O.2   194  ARG194     -0.2867
     71  CB         6.2770   54.2250   12.9360 C.3   194  ARG194      0.0307
     72  CG         7.1370   53.5080   13.9810 C.3   194  ARG194      0.0489
     73  CD         6.3310   52.8860   15.0740 C.3   194  ARG194      0.2205
     74  NE         7.1510   52.2510   16.1040 N.pl3 194  ARG194     -0.0865
     75  CZ         6.9330   51.0360   16.6300 C.cat 194  ARG194      0.5346
     76  NH1        5.9470   50.2520   16.1990 N.pl3 194  ARG194      0.1354
     77  NH2        7.7320   50.5860   17.5940 N.pl3 194  ARG194      0.1354
     78  N          6.6580   49.0080   12.3360 N.3   196  ASP196     -0.1225
     79  CA         6.7260   48.1430   13.4910 C.3   196  ASP196      0.1805
     80  C          7.4600   46.8260   13.1710 C.2   196  ASP196      0.2597
     81  O          7.2730   46.2590   12.0830 O.2   196  ASP196     -0.2718
     82  CB         5.2890   47.8450   13.9130 C.3   196  ASP196      0.1424
     83  CG         5.2060   46.9180   15.0710 C.2   196  ASP196      0.3668
     84  OD1        5.5620   47.3150   16.2040 O.co2 196  ASP196     -0.2456
     85  OD2        4.7830   45.7620   14.9410 O.co2 196  ASP196     -0.2456
     86  N          8.2570   46.3580   14.1430 N.am  197  ALA197     -0.1979
     87  CA         8.8760   45.0350   14.1320 C.3   197  ALA197      0.1597
     88  C          9.7140   44.8080   12.8750 C.2   197  ALA197      0.2287
     89  O          9.6660   43.6960   12.3260 O.2   197  ALA197     -0.2864
     90  CB         7.7990   43.9540   14.2250 C.3   197  ALA197      0.0319
     91  N         12.9480   44.6040   12.3680 N.3   199  LYS199     -0.1231
     92  CA        13.9610   43.5840   12.6000 C.3   199  LYS199      0.1693
     93  C         13.4500   42.1600   12.2860 C.2   199  LYS199      0.2592
     94  O         14.2400   41.2590   11.9450 O.2   199  LYS199     -0.2718
     95  CB        14.4250   43.6590   14.0590 C.3   199  LYS199      0.0285
     96  CG        15.5850   42.7550   14.4020 C.3   199  LYS199      0.0035
     97  CD        15.6910   42.4650   15.9060 C.3   199  LYS199      0.0206
     98  CE        16.9950   42.9470   16.5050 C.3   199  LYS199      0.1093
     99  NZ        16.9460   42.8670   17.9950 N.3   199  LYS199     -0.1314
    100  N         12.1260   41.9930   12.3770 N.am  200  HIS200     -0.1976
    101  CA        11.4740   40.6930   12.1890 C.3   200  HIS200      0.1656
    102  C         11.0700   40.4170   10.7560 C.2   200  HIS200      0.2291
    103  O         10.4340   39.4090   10.4970 O.2   200  HIS200     -0.2864
    104  CB        10.3020   40.5640   13.1680 C.3   200  HIS200      0.0771
    105  CG        10.7610   40.6240   14.5850 C.ar  200  HIS200      0.0820
    106  ND1       11.3710   39.5490   15.2020 N.ar  200  HIS200     -0.2267
    107  CD2       10.8460   41.6630   15.4600 C.ar  200  HIS200      0.1154
    108  CE1       11.7490   39.9070   16.4260 C.ar  200  HIS200      0.1986
    109  NE2       11.4560   41.1870   16.6040 N.ar  200  HIS200     -0.2212
    110  N         11.3200   50.5680   12.9570 N.3   232  GLU232     -0.1245
    111  CA        11.6950   50.1330   14.3010 C.3   232  GLU232      0.1567
    112  C         12.6350   48.9100   14.2730 C.2   232  GLU232      0.2260
    113  O         12.2140   47.7790   14.0220 O.2   232  GLU232     -0.2867
    114  CB        10.4780   49.8300   15.1900 C.3   232  GLU232      0.0388
    115  CG        10.8830   49.3860   16.6050 C.3   232  GLU232      0.1160
    116  CD         9.9820   48.3540   17.2460 C.2   232  GLU232      0.3649
    117  OE1        9.3040   47.5850   16.5390 O.co2 232  GLU232     -0.2457
    118  OE2        9.9200   48.3530   18.4950 O.co2 232  GLU232     -0.2457
    119  N         15.6570   47.5580   16.9750 N.3   234  ILE234     -0.1245
    120  CA        16.4330   47.6780   18.2120 C.3   234  ILE234      0.1561
    121  C         17.7780   46.9970   18.0450 C.2   234  ILE234      0.2260
    122  O         17.8830   45.7750   18.0760 O.2   234  ILE234     -0.2867
    123  CB        15.6820   47.1000   19.3920 C.3   234  ILE234      0.0252
    124  CG1       14.3450   47.8240   19.5710 C.3   234  ILE234      0.0019
    125  CG2       16.4940   47.2930   20.6700 C.3   234  ILE234      0.0019
    126  CD1       13.3770   47.0540   20.4540 C.3   234  ILE234      0.0001
    127  N          7.0540   54.3890   23.5510 N.3   298  HIS298     -0.1226
    128  CA         5.9340   53.8250   24.2140 C.3   298  HIS298      0.1752
    129  C          6.2830   52.5130   24.9460 C.2   298  HIS298      0.2596
    130  O          5.6840   52.2370   25.9660 O.2   298  HIS298     -0.2718
    131  CB         4.7630   53.6810   23.2160 C.3   298  HIS298      0.0759
    132  CG         4.9230   52.5900   22.1900 C.ar  298  HIS298      0.0818
    133  ND1        5.6580   52.7440   21.0310 N.ar  298  HIS298     -0.2268
    134  CD2        4.3490   51.3750   22.1070 C.ar  298  HIS298      0.1154
    135  CE1        5.5600   51.6570   20.3000 C.ar  298  HIS298      0.1986
    136  NE2        4.7650   50.8090   20.9280 N.ar  298  HIS298     -0.2212
    137  N          7.2250   51.7220   24.4080 N.am  299  ASP299     -0.1974
    138  CA         7.6600   50.4770   25.0400 C.3   299  ASP299      0.1709
    139  C          8.5990   50.7490   26.1750 C.2   299  ASP299      0.2293
    140  O          8.3190   50.3020   27.2720 O.2   299  ASP299     -0.2864
    141  CB         8.4310   49.5650   24.1000 C.3   299  ASP299      0.1436
    142  CG         7.5790   48.9860   23.0390 C.2   299  ASP299      0.3671
    143  OD1        6.4590   48.5150   23.3410 O.co2 299  ASP299     -0.2456
    144  OD2        7.9220   49.0570   21.8580 O.co2 299  ASP299     -0.2456
    145  N          9.5980   47.8100   28.6340 N.3   304  HIS304     -0.1226
    146  CA         9.6340   46.9410   27.4270 C.3   304  HIS304      0.1752
    147  C         10.7450   47.3620   26.4020 C.2   304  HIS304      0.2596
    148  O         11.5500   48.2610   26.6850 O.2   304  HIS304     -0.2718
    149  CB         8.2750   46.9170   26.7180 C.3   304  HIS304      0.0759
    150  CG         7.1620   46.3340   27.5350 C.ar  304  HIS304      0.0818
    151  ND1        7.0890   46.4580   28.9070 N.ar  304  HIS304     -0.2268
    152  CD2        6.0610   45.6340   27.1600 C.ar  304  HIS304      0.1154
    153  CE1        6.0030   45.8440   29.3430 C.ar  304  HIS304      0.1986
    154  NE2        5.3610   45.3330   28.3050 N.ar  304  HIS304     -0.2212
    155  N         10.7950   46.6940   25.2340 N.am  305  GLY305     -0.1957
    156  CA        11.9240   46.8340   24.3150 C.3   305  GLY305      0.1869
    157  C         13.2760   46.9430   25.0520 C.2   305  GLY305      0.2309
    158  O         13.5360   46.1800   25.9920 O.2   305  GLY305     -0.2863
@<TRIPOS>BOND
     1   103   102    2
     2    67    68    1
     3   102   101    1
     4    41    42    1
     5    69    70    2
     6    69    68    1
     7    68    71    1
     8    44    43    2
     9    42    43    1
    10    42    45    1
    11    94    93    2
    12    81    80    2
    13   101   100    1
    14   101   104    1
    15    93   100   am
    16    93    92    1
    17    89    88    2
    18    78    79    1
    19    91    92    1
    20    92    95    1
    21    88    87    1
    22    71    72    1
    23   110   111    1
    24   104   105    1
    25    80    79    1
    26    80    86   am
    27    45    46    1
    28    79    82    1
    29    82    83    1
    30    72    73    1
    31   113   112    2
    32    46    48   ar
    33    46    47   ar
    34    95    96    1
    35    87    86    1
    36    87    90    1
    37   112   111    1
    38   111   114    1
    39    48    50   ar
    40    96    97    1
    41   105   106   ar
    42   105   107   ar
    43    47    49   ar
    44    85    83   ar
    45    62    61    2
    46    83    84   ar
    47    73    74    1
    48   114   115    1
    49   106   108   ar
    50    50    49   ar
    51   107   109   ar
    52    61    60    1
    53    97    98    1
    54    74    75    2
    55    76    75    1
    56   108   109   ar
    57    98    99    1
    58   117   116   ar
    59   115   116    1
    60    75    77    1
    61    51    52    1
    62    63    60    1
    63    63    64    1
    64   119   120    1
    65    60    59    1
    66    32    31    2
    67   116   118   ar
    68    55    52    1
    69    55    56    1
    70    31    30    1
    71    58    56    1
    72    37    35   ar
    73    37    39   ar
    74    52    53    1
    75    35    34   ar
    76    30    29    1
    77    30    33    1
    78   121   122    2
    79   121   120    1
    80    65    64    1
    81    64    66    1
    82   120   123    1
    83    56    57    1
    84    33    34    1
    85    40    39    1
    86    39    38   ar
    87    54    53    2
    88    34    36   ar
    89   123   124    1
    90   123   125    1
    91   124   126    1
    92    36    38   ar
    93   135   136   ar
    94   135   133   ar
    95   136   134   ar
    96   133   132   ar
    97    18    17    2
    98   144   142   ar
    99   134   132   ar
   100   132   131    1
   101    17    16    1
   102     4     3    2
   103   142   143   ar
   104   142   141    1
   105   131   128    1
   106    16    19    1
   107    16    15    1
   108   127   128    1
   109    13    11   ar
   110    13    14   ar
   111    19    20    1
   112     3    15   am
   113     3     2    1
   114    11     8   ar
   115   141   138    1
   116   128   129    1
   117   156   157    1
   118   156   155    1
   119   137   129   am
   120   137   138    1
   121    14    12   ar
   122    25    27   ar
   123    25    22   ar
   124   129   130    2
   125   138   139    1
   126   157   158    2
   127     2     5    1
   128     2     1    1
   129   155   147   am
   130    20    22   ar
   131    20    21   ar
   132     8     6   ar
   133     8    10   ar
   134     5     6    1
   135    27    28   ar
   136    22    24   ar
   137     6     7   ar
   138    12    10   ar
   139   139   140    2
   140    10     9   ar
   141   147   148    2
   142   147   146    1
   143    21    23   ar
   144   149   146    1
   145   149   150    1
   146    28    26   ar
   147    24    23   ar
   148    24    26   ar
   149   152   150   ar
   150   152   154   ar
   151     7     9   ar
   152   146   145    1
   153   150   151   ar
   154   154   153   ar
   155   151   153   ar
