@<TRIPOS>MOLECULE
tmp/1q4qD00.pdb
 161 158 0 0 0
SMALL
GASTEIGER

@<TRIPOS>ATOM
      1  N         59.8040  -24.2590   40.1080 N.3     4  GLN4       -0.1231
      2  CA        60.4650  -23.7410   38.9280 C.3     4  GLN4        0.1698
      3  C         61.2300  -22.5040   39.3870 C.2     4  GLN4        0.2592
      4  O         62.3790  -22.2890   39.0100 O.2     4  GLN4       -0.2718
      5  CB        59.4160  -23.3590   37.8860 C.3     4  GLN4        0.0381
      6  CG        59.8890  -23.4920   36.4660 C.3     4  GLN4        0.0905
      7  CD        60.4520  -24.8650   36.1960 C.2     4  GLN4        0.2608
      8  OE1       59.8030  -25.8770   36.4650 O.2     4  GLN4       -0.2717
      9  NE2       61.6700  -24.9120   35.6660 N.am    4  GLN4       -0.0878
     10  N         60.5820  -21.7000   40.2220 N.am    5  TYR5       -0.1976
     11  CA        61.1910  -20.4890   40.7410 C.3     5  TYR5        0.1639
     12  C         61.1520  -20.5030   42.2560 C.2     5  TYR5        0.2290
     13  O         60.2450  -19.9440   42.8740 O.2     5  TYR5       -0.2864
     14  CB        60.4670  -19.2520   40.2180 C.3     5  TYR5        0.0560
     15  CG        60.3660  -19.2310   38.7190 C.ar    5  TYR5       -0.0198
     16  CD1       59.3490  -19.9210   38.0660 C.ar    5  TYR5       -0.0009
     17  CD2       61.3110  -18.5630   37.9470 C.ar    5  TYR5       -0.0009
     18  CE1       59.2710  -19.9530   36.6790 C.ar    5  TYR5        0.0417
     19  CE2       61.2470  -18.5870   36.5530 C.ar    5  TYR5        0.0417
     20  CZ        60.2210  -19.2870   35.9260 C.ar    5  TYR5        0.1957
     21  OH        60.1390  -19.3300   34.5500 O.3     5  TYR5       -0.2866
     22  N         56.0890  -11.2410   35.7720 N.3    40  THR40      -0.1218
     23  CA        57.3670  -11.1820   35.0670 C.3    40  THR40       0.1862
     24  C         57.8290   -9.7800   34.6700 C.2    40  THR40       0.2287
     25  O         58.8950   -9.6270   34.0760 O.2    40  THR40      -0.2866
     26  CB        57.3260  -12.0350   33.7880 C.3    40  THR40       0.1770
     27  OG1       56.3080  -11.5350   32.9080 O.3    40  THR40      -0.2211
     28  CG2       57.0470  -13.4930   34.1300 C.3    40  THR40       0.0375
     29  N         56.4580   -7.8340   32.4490 N.3    42  VAL42      -0.1245
     30  CA        56.1610   -7.5400   31.0500 C.3    42  VAL42       0.1561
     31  C         54.6550   -7.6130   30.7970 C.2    42  VAL42       0.2260
     32  O         54.0480   -8.6610   30.9960 O.2    42  VAL42      -0.2867
     33  CB        56.8620   -8.5510   30.1020 C.3    42  VAL42       0.0252
     34  CG1       56.4610   -8.2730   28.6560 C.3    42  VAL42       0.0019
     35  CG2       58.3750   -8.4680   30.2680 C.3    42  VAL42       0.0019
     36  N         51.7450  -10.4460   31.8360 N.3    45  ARG45      -0.1231
     37  CA        52.2630  -11.7980   31.8140 C.3    45  ARG45       0.1694
     38  C         52.8150  -12.2420   33.1530 C.2    45  ARG45       0.2592
     39  O         53.7510  -11.6590   33.6940 O.2    45  ARG45      -0.2718
     40  CB        53.3260  -11.8940   30.7270 C.3    45  ARG45       0.0321
     41  CG        52.7340  -11.5240   29.3970 C.3    45  ARG45       0.0489
     42  CD        53.7380  -11.2430   28.3220 C.3    45  ARG45       0.2205
     43  NE        53.0250  -10.7840   27.1320 N.pl3  45  ARG45      -0.0865
     44  CZ        53.5630  -10.6730   25.9230 C.cat  45  ARG45       0.5346
     45  NH1       54.8370  -10.9870   25.7350 N.pl3  45  ARG45       0.1354
     46  NH2       52.8260  -10.2590   24.9030 N.pl3  45  ARG45       0.1354
     47  N         52.2030  -13.2880   33.6840 N.am   46  VAL46      -0.1966
     48  CA        52.6050  -13.8500   34.9530 C.3    46  VAL46       0.1727
     49  C         53.0290  -15.2890   34.7080 C.2    46  VAL46       0.2616
     50  O         52.7710  -15.8520   33.6420 O.2    46  VAL46      -0.2715
     51  CB        51.4280  -13.8140   35.9560 C.3    46  VAL46       0.0290
     52  CG1       51.0710  -12.3690   36.2930 C.3    46  VAL46       0.0023
     53  CG2       50.2160  -14.5200   35.3550 C.3    46  VAL46       0.0023
     54  N         53.7010  -15.8760   35.6930 N.am   47  ARG47      -0.1977
     55  CA        54.1360  -17.2660   35.6070 C.3    47  ARG47       0.1597
     56  C         53.9450  -17.9290   36.9490 C.2    47  ARG47       0.2287
     57  O         53.9730  -17.2630   37.9800 O.2    47  ARG47      -0.2864
     58  CB        55.6080  -17.3640   35.2300 C.3    47  ARG47       0.0334
     59  CG        55.8800  -17.1330   33.7780 C.3    47  ARG47       0.0492
     60  CD        57.3290  -17.3850   33.4730 C.3    47  ARG47       0.2205
     61  NE        57.5820  -17.2050   32.0540 N.pl3  47  ARG47      -0.0865
     62  CZ        57.0850  -17.9900   31.1040 C.cat  47  ARG47       0.5346
     63  NH1       56.3100  -19.0180   31.4250 N.pl3  47  ARG47       0.1354
     64  NH2       57.3500  -17.7320   29.8300 N.pl3  47  ARG47       0.1354
     65  N         55.8370  -23.1300   36.4770 N.3    52  GLY52      -0.1210
     66  CA        56.5370  -22.2710   35.5460 C.3    52  GLY52       0.1956
     67  C         55.6990  -21.7900   34.3740 C.2    52  GLY52       0.2612
     68  O         56.1700  -21.0040   33.5470 O.2    52  GLY52      -0.2717
     69  N         54.4550  -22.2580   34.2990 N.am   53  GLY53      -0.1942
     70  CA        53.5740  -21.8480   33.2160 C.3    53  GLY53       0.2014
     71  C         53.2720  -20.3580   33.2550 C.2    53  GLY53       0.2639
     72  O         53.2450  -19.7500   34.3250 O.2    53  GLY53      -0.2714
     73  N         53.0540  -19.7660   32.0850 N.am   54  GLY54      -0.1939
     74  CA        52.7550  -18.3500   32.0210 C.3    54  GLY54       0.2014
     75  C         51.4040  -18.0940   31.3860 C.2    54  GLY54       0.2639
     76  O         51.0190  -18.7650   30.4310 O.2    54  GLY54      -0.2714
     77  N         50.6700  -17.1320   31.9310 N.am   55  LEU55      -0.1963
     78  CA        49.3690  -16.7890   31.3930 C.3    55  LEU55       0.1728
     79  C         49.3530  -15.3020   31.0740 C.2    55  LEU55       0.2616
     80  O         50.0090  -14.5040   31.7480 O.2    55  LEU55      -0.2715
     81  CB        48.2640  -17.1280   32.3930 C.3    55  LEU55       0.0311
     82  CG        48.1760  -18.5870   32.8520 C.3    55  LEU55       0.0022
     83  CD1       46.9310  -18.7530   33.7010 C.3    55  LEU55       0.0001
     84  CD2       48.1330  -19.5380   31.6600 C.3    55  LEU55       0.0001
     85  N         48.6010  -14.9420   30.0410 N.am   56  MET56      -0.1963
     86  CA        48.5050  -13.5600   29.6070 C.3    56  MET56       0.1736
     87  C         47.2230  -13.3300   28.8330 C.2    56  MET56       0.2616
     88  O         46.4840  -14.2670   28.5640 O.2    56  MET56      -0.2715
     89  CB        49.6870  -13.2210   28.7170 C.3    56  MET56       0.0427
     90  CG        49.8770  -14.2150   27.6030 C.3    56  MET56       0.0599
     91  SD        51.0930  -13.6530   26.4420 S.3    56  MET56      -0.1393
     92  CE        50.0840  -13.5060   25.0020 C.3    56  MET56       0.0692
     93  N         46.9830  -12.0770   28.4600 N.am   57  ASP57      -0.1957
     94  CA        45.7840  -11.6940   27.7290 C.3    57  ASP57       0.1840
     95  C         44.5700  -11.9660   28.6050 C.2    57  ASP57       0.2622
     96  O         43.6060  -12.5850   28.1690 O.2    57  ASP57      -0.2715
     97  CB        45.6780  -12.4720   26.4090 C.3    57  ASP57       0.1450
     98  CG        46.8290  -12.1660   25.4480 C.2    57  ASP57       0.3671
     99  OD1       47.4520  -11.0850   25.5790 O.co2  57  ASP57      -0.2456
    100  OD2       47.1060  -12.9950   24.5480 O.co2  57  ASP57      -0.2456
    101  N         44.6380  -11.4880   29.8450 N.am   58  TRP58      -0.1960
    102  CA        43.5730  -11.6630   30.8310 C.3    58  TRP58       0.1771
    103  C         42.2990  -10.8860   30.5060 C.2    58  TRP58       0.2619
    104  O         42.3300   -9.6660   30.3460 O.2    58  TRP58      -0.2715
    105  CB        44.0610  -11.2330   32.2210 C.3    58  TRP58       0.0590
    106  CG        45.1300  -12.0930   32.8160 C.ar   58  TRP58       0.0006
    107  CD1       46.4770  -11.9960   32.6100 C.ar   58  TRP58       0.0946
    108  CD2       44.9390  -13.1830   33.7240 C.ar   58  TRP58       0.0152
    109  NE1       47.1370  -12.9590   33.3390 N.ar   58  TRP58      -0.2442
    110  CE2       46.2160  -13.7010   34.0310 C.ar   58  TRP58       0.0810
    111  CE3       43.8080  -13.7770   34.3070 C.ar   58  TRP58       0.0012
    112  CZ2       46.3960  -14.7890   34.9010 C.ar   58  TRP58       0.0191
    113  CZ3       43.9860  -14.8590   35.1710 C.ar   58  TRP58       0.0001
    114  CH2       45.2720  -15.3520   35.4590 C.ar   58  TRP58       0.0015
    115  N         41.1810  -11.6020   30.4360 N.am   59  ASN59      -0.1972
    116  CA        39.8780  -11.0120   30.1420 C.3    59  ASN59       0.1688
    117  C         39.2270  -10.5660   31.4400 C.2    59  ASN59       0.2292
    118  O         39.5820  -11.0500   32.5160 O.2    59  ASN59      -0.2864
    119  CB        38.9730  -12.0310   29.4480 C.3    59  ASN59       0.1181
    120  CG        38.5920  -11.6090   28.0430 C.2    59  ASN59       0.2629
    121  OD1       38.1070  -10.4950   27.8310 O.2    59  ASN59      -0.2716
    122  ND2       38.8030  -12.4980   27.0740 N.am   59  ASN59      -0.0877
    123  N         38.3180  -13.4480   33.8510 N.3    62  ASP62      -0.1239
    124  CA        39.2640  -14.5460   34.0300 C.3    62  ASP62       0.1674
    125  C         39.6240  -14.6200   35.5080 C.2    62  ASP62       0.2266
    126  O         40.0500  -13.6270   36.1010 O.2    62  ASP62      -0.2867
    127  CB        40.5490  -14.3220   33.2400 C.3    62  ASP62       0.1410
    128  CG        40.3890  -14.5920   31.7700 C.2    62  ASP62       0.3668
    129  OD1       39.3870  -15.2240   31.3740 O.co2  62  ASP62      -0.2456
    130  OD2       41.2880  -14.1820   31.0080 O.co2  62  ASP62      -0.2456
    131  N         41.8750  -20.2580   35.6110 N.3    67  GLN67      -0.1245
    132  CA        42.6860  -20.1850   34.4020 C.3    67  GLN67       0.1566
    133  C         43.9310  -21.0220   34.6160 C.2    67  GLN67       0.2260
    134  O         44.4970  -21.5790   33.6770 O.2    67  GLN67      -0.2867
    135  CB        43.0660  -18.7320   34.1020 C.3    67  GLN67       0.0367
    136  CG        41.8970  -17.8950   33.6500 C.3    67  GLN67       0.0905
    137  CD        41.2050  -18.5020   32.4480 C.2    67  GLN67       0.2608
    138  OE1       41.7830  -18.5890   31.3600 O.2    67  GLN67      -0.2717
    139  NE2       39.9650  -18.9380   32.6390 N.am   67  GLN67      -0.0878
    140  N         44.4400  -24.2060   32.0910 N.3    71  TRP71      -0.1227
    141  CA        45.5670  -24.3230   31.1770 C.3    71  TRP71       0.1737
    142  C         46.7740  -25.0570   31.7220 C.2    71  TRP71       0.2595
    143  O         47.5690  -25.5940   30.9510 O.2    71  TRP71      -0.2718
    144  CB        45.9990  -22.9350   30.7060 C.3    71  TRP71       0.0564
    145  CG        44.9280  -22.2150   29.9740 C.ar   71  TRP71       0.0003
    146  CD1       43.9590  -21.4170   30.5080 C.ar   71  TRP71       0.0946
    147  CD2       44.6760  -22.2680   28.5690 C.ar   71  TRP71       0.0152
    148  NE1       43.1140  -20.9700   29.5200 N.ar   71  TRP71      -0.2442
    149  CE2       43.5330  -21.4760   28.3180 C.ar   71  TRP71       0.0810
    150  CE3       45.3070  -22.9080   27.4930 C.ar   71  TRP71       0.0012
    151  CZ2       43.0040  -21.3070   27.0300 C.ar   71  TRP71       0.0191
    152  CZ3       44.7820  -22.7390   26.2100 C.ar   71  TRP71       0.0001
    153  CH2       43.6400  -21.9440   25.9930 C.ar   71  TRP71       0.0015
    154  N         46.9180  -25.0730   33.0420 N.am   72  LEU72      -0.1980
    155  CA        48.0500  -25.7450   33.6810 C.3    72  LEU72       0.1596
    156  C         47.5330  -26.7440   34.7190 C.2    72  LEU72       0.2287
    157  O         47.9640  -26.7440   35.8680 O.2    72  LEU72      -0.2864
    158  CB        48.9550  -24.6920   34.3320 C.3    72  LEU72       0.0297
    159  CG        49.4760  -23.6430   33.3380 C.3    72  LEU72       0.0022
    160  CD1       50.0270  -22.4230   34.0670 C.3    72  LEU72       0.0001
    161  CD2       50.5380  -24.2860   32.4510 C.3    72  LEU72       0.0001
@<TRIPOS>BOND
     1   100    98   ar
     2    46    44    1
     3    92    91    1
     4    98    99   ar
     5    98    97    1
     6    45    44    1
     7    44    43    2
     8   153   152   ar
     9   153   151   ar
    10   152   150   ar
    11    97    94    1
    12    91    90    1
    13   151   149   ar
    14   122   120   am
    15    43    42    1
    16   150   147   ar
    17    90    89    1
    18    94    93    1
    19    94    95    1
    20   121   120    2
    21   120   119    1
    22    96    95    2
    23   149   147   ar
    24   149   148   ar
    25    42    41    1
    26    93    87   am
    27    88    87    2
    28   147   145   ar
    29    95   101   am
    30    34    33    1
    31    89    86    1
    32    87    86    1
    33    41    40    1
    34   119   116    1
    35   148   146   ar
    36    86    85    1
    37    64    62    1
    38   101   102    1
    39   145   146   ar
    40   145   144    1
    41    85    79   am
    42    33    35    1
    43    33    30    1
    44   116   115    1
    45   116   117    1
    46   104   103    2
    47    76    75    2
    48   115   103   am
    49   103   102    1
    50   144   141    1
    51    40    37    1
    52    31    32    2
    53    31    30    1
    54   102   105    1
    55   143   142    2
    56   130   128   ar
    57    30    29    1
    58    79    78    1
    59    79    80    2
    60    62    63    1
    61    62    61    2
    62   141   142    1
    63   141   140    1
    64   138   137    2
    65   129   128   ar
    66    75    77   am
    67    75    74    1
    68    78    77    1
    69    78    81    1
    70   117   118    2
    71    84    82    1
    72   142   154   am
    73   128   127    1
    74    37    36    1
    75    37    38    1
    76    74    73    1
    77    61    60    1
    78    73    71   am
    79   105   106    1
    80    81    82    1
    81   137   139   am
    82   137   136    1
    83   161   159    1
    84   107   106   ar
    85   107   109   ar
    86   106   108   ar
    87    82    83    1
    88    27    26    1
    89   154   155    1
    90    38    47   am
    91    38    39    2
    92    70    71    1
    93    70    69    1
    94   127   124    1
    95    71    72    2
    96   159   160    1
    97   159   158    1
    98   109   110   ar
    99    60    59    1
   100    68    67    2
   101    50    49    2
   102   136   135    1
   103   134   133    2
   104   155   158    1
   105   155   156    1
   106    47    48    1
   107   108   110   ar
   108   108   111   ar
   109    59    58    1
   110    26    28    1
   111    26    23    1
   112   123   124    1
   113   124   125    1
   114   110   112   ar
   115    25    24    2
   116   135   132    1
   117    69    67   am
   118   111   113   ar
   119    67    66    1
   120   132   133    1
   121   132   131    1
   122    21    20    1
   123    24    23    1
   124    49    48    1
   125    49    54   am
   126   156   157    2
   127   112   114   ar
   128    48    51    1
   129    23    22    1
   130   113   114   ar
   131    58    55    1
   132    53    51    1
   133   125   126    2
   134    66    65    1
   135    55    54    1
   136    55    56    1
   137     9     7   am
   138    20    19   ar
   139    20    18   ar
   140    51    52    1
   141     7     8    2
   142     7     6    1
   143     6     5    1
   144    19    17   ar
   145    18    16   ar
   146    56    57    2
   147     5     2    1
   148    17    15   ar
   149    16    15   ar
   150    15    14    1
   151     2     3    1
   152     2     1    1
   153     4     3    2
   154     3    10   am
   155    14    11    1
   156    10    11    1
   157    11    12    1
   158    12    13    2
