@<TRIPOS>MOLECULE
tmp/1q4qA00.pdb
 171 169 0 0 0
SMALL
GASTEIGER

@<TRIPOS>ATOM
      1  N         55.8060   32.5010   44.5080 N.3     4  GLN4       -0.1231
      2  CA        56.6170   32.1840   45.6650 C.3     4  GLN4        0.1698
      3  C         57.4890   30.9860   45.2730 C.2     4  GLN4        0.2592
      4  O         58.5980   30.8240   45.7760 O.2     4  GLN4       -0.2718
      5  CB        55.7160   31.8350   46.8430 C.3     4  GLN4        0.0381
      6  CG        56.3770   32.0150   48.1810 C.3     4  GLN4        0.0905
      7  CD        56.9860   33.3920   48.3370 C.2     4  GLN4        0.2608
      8  OE1       56.3570   34.3960   48.0080 O.2     4  GLN4       -0.2717
      9  NE2       58.2140   33.4480   48.8500 N.am    4  GLN4       -0.0878
     10  N         56.9680   30.1520   44.3720 N.am    5  TYR5       -0.1976
     11  CA        57.6620   28.9650   43.8660 C.3     5  TYR5        0.1639
     12  C         57.5990   28.9580   42.3490 C.2     5  TYR5        0.2290
     13  O         56.7840   28.2550   41.7460 O.2     5  TYR5       -0.2864
     14  CB        57.0220   27.6740   44.3780 C.3     5  TYR5        0.0560
     15  CG        57.1070   27.5100   45.8680 C.ar    5  TYR5       -0.0198
     16  CD1       56.1080   28.0230   46.6950 C.ar    5  TYR5       -0.0009
     17  CD2       58.2120   26.8980   46.4630 C.ar    5  TYR5       -0.0009
     18  CE1       56.2060   27.9350   48.0750 C.ar    5  TYR5        0.0417
     19  CE2       58.3240   26.8080   47.8570 C.ar    5  TYR5        0.0417
     20  CZ        57.3160   27.3320   48.6480 C.ar    5  TYR5        0.1957
     21  OH        57.4060   27.2800   50.0120 O.3     5  TYR5       -0.2866
     22  N         50.8050   22.1310   44.9620 N.3    38  PHE38      -0.1241
     23  CA        51.8220   21.1240   44.7270 C.3    38  PHE38       0.1605
     24  C         51.9650   20.4380   46.0880 C.2    38  PHE38       0.2264
     25  O         51.6960   21.0420   47.1360 O.2    38  PHE38      -0.2867
     26  CB        53.1450   21.7480   44.2360 C.3    38  PHE38       0.0534
     27  CG        53.7960   22.6870   45.2140 C.ar   38  PHE38      -0.0203
     28  CD1       54.6590   22.2040   46.1980 C.ar   38  PHE38      -0.0042
     29  CD2       53.5660   24.0620   45.1330 C.ar   38  PHE38      -0.0042
     30  CE1       55.2880   23.0780   47.0860 C.ar   38  PHE38      -0.0003
     31  CE2       54.1840   24.9380   46.0100 C.ar   38  PHE38      -0.0003
     32  CZ        55.0490   24.4490   46.9910 C.ar   38  PHE38      -0.0000
     33  N         53.9640   18.7890   49.1900 N.3    40  THR40      -0.1218
     34  CA        55.2490   18.9690   49.8530 C.3    40  THR40       0.1862
     35  C         55.8750   17.6340   50.2470 C.2    40  THR40       0.2287
     36  O         56.9690   17.6000   50.8060 O.2    40  THR40      -0.2866
     37  CB        55.1030   19.8280   51.1080 C.3    40  THR40       0.1770
     38  OG1       54.3100   19.1200   52.0740 O.3    40  THR40      -0.2211
     39  CG2       54.4260   21.1570   50.7540 C.3    40  THR40       0.0375
     40  N         49.8440   17.7020   53.1150 N.3    45  ARG45      -0.1231
     41  CA        50.2810   19.0830   53.1000 C.3    45  ARG45       0.1694
     42  C         50.6750   19.5610   51.7250 C.2    45  ARG45       0.2592
     43  O         51.6940   19.1410   51.1620 O.2    45  ARG45      -0.2718
     44  CB        51.4460   19.2330   54.0520 C.3    45  ARG45       0.0321
     45  CG        51.0520   18.7430   55.3980 C.3    45  ARG45       0.0489
     46  CD        52.1580   18.7790   56.3920 C.3    45  ARG45       0.2205
     47  NE        51.6090   18.3790   57.6810 N.pl3  45  ARG45      -0.0865
     48  CZ        52.2030   18.5770   58.8460 C.cat  45  ARG45       0.5346
     49  NH1       53.3860   19.1730   58.8960 N.pl3  45  ARG45       0.1354
     50  NH2       51.6080   18.1790   59.9580 N.pl3  45  ARG45       0.1354
     51  N         49.8450   20.4460   51.1900 N.am   46  VAL46      -0.1966
     52  CA        50.0770   21.0260   49.8820 C.3    46  VAL46       0.1727
     53  C         50.2880   22.5140   50.0890 C.2    46  VAL46       0.2616
     54  O         49.8480   23.0810   51.0870 O.2    46  VAL46      -0.2715
     55  CB        48.8570   20.7990   48.9300 C.3    46  VAL46       0.0290
     56  CG1       48.5400   19.3000   48.8070 C.3    46  VAL46       0.0023
     57  CG2       47.6460   21.5480   49.4460 C.3    46  VAL46       0.0023
     58  N         50.9990   23.1360   49.1630 N.am   47  ARG47      -0.1977
     59  CA        51.2270   24.5780   49.2160 C.3    47  ARG47       0.1597
     60  C         50.8650   25.1390   47.8500 C.2    47  ARG47       0.2287
     61  O         50.9610   24.4370   46.8450 O.2    47  ARG47      -0.2864
     62  CB        52.6910   24.8990   49.5260 C.3    47  ARG47       0.0334
     63  CG        53.0680   24.7680   50.9900 C.3    47  ARG47       0.0492
     64  CD        54.3960   25.4350   51.2450 C.3    47  ARG47       0.2205
     65  NE        54.7310   25.4680   52.6630 N.pl3  47  ARG47      -0.0865
     66  CZ        54.1090   26.2120   53.5720 C.cat  47  ARG47       0.5346
     67  NH1       53.1030   27.0080   53.2350 N.pl3  47  ARG47       0.1354
     68  NH2       54.4940   26.1530   54.8330 N.pl3  47  ARG47       0.1354
     69  N         50.9130   32.0150   45.9710 N.3    51  CYS51      -0.1221
     70  CA        50.9540   32.7190   47.2470 C.3    51  CYS51       0.1808
     71  C         51.8510   32.0210   48.2710 C.2    51  CYS51       0.2602
     72  O         52.2470   32.6300   49.2660 O.2    51  CYS51      -0.2717
     73  CB        49.5340   32.9060   47.8220 C.3    51  CYS51       0.0970
     74  SG        48.6090   31.4130   48.3470 S.3    51  CYS51      -0.0800
     75  N         52.1820   30.7570   48.0170 N.am   52  GLY52      -0.1942
     76  CA        53.0220   30.0190   48.9400 C.3    52  GLY52       0.2014
     77  C         52.2490   29.4520   50.1220 C.2    52  GLY52       0.2639
     78  O         52.7940   28.6730   50.9070 O.2    52  GLY52      -0.2714
     79  N         50.9810   29.8410   50.2490 N.am   53  GLY53      -0.1939
     80  CA        50.1570   29.3490   51.3370 C.3    53  GLY53       0.2014
     81  C         50.1030   27.8330   51.3630 C.2    53  GLY53       0.2639
     82  O         50.2890   27.1830   50.3330 O.2    53  GLY53      -0.2714
     83  N         49.8400   27.2690   52.5400 N.am   54  GLY54      -0.1939
     84  CA        49.7780   25.8260   52.6750 C.3    54  GLY54       0.2014
     85  C         48.5150   25.3570   53.3660 C.2    54  GLY54       0.2639
     86  O         48.0740   25.9540   54.3470 O.2    54  GLY54      -0.2714
     87  N         47.9340   24.2820   52.8480 N.am   55  LEU55      -0.1963
     88  CA        46.7060   23.7230   53.4010 C.3    55  LEU55       0.1728
     89  C         46.8750   22.2290   53.6690 C.2    55  LEU55       0.2616
     90  O         47.5090   21.5140   52.8970 O.2    55  LEU55      -0.2715
     91  CB        45.5410   23.9410   52.4250 C.3    55  LEU55       0.0311
     92  CG        45.3130   25.3490   51.8510 C.3    55  LEU55       0.0022
     93  CD1       44.1530   25.3170   50.8740 C.3    55  LEU55       0.0001
     94  CD2       45.0280   26.3350   52.9770 C.3    55  LEU55       0.0001
     95  N         46.3020   21.7690   54.7700 N.am   56  MET56      -0.1963
     96  CA        46.3780   20.3660   55.1480 C.3    56  MET56       0.1736
     97  C         45.1010   19.9780   55.8750 C.2    56  MET56       0.2616
     98  O         44.2040   20.8070   56.0580 O.2    56  MET56      -0.2715
     99  CB        47.5790   20.1380   56.0600 C.3    56  MET56       0.0427
    100  CG        47.5920   21.0540   57.2580 C.3    56  MET56       0.0599
    101  SD        48.9150   20.6810   58.3980 S.3    56  MET56      -0.1393
    102  CE        48.2850   21.4980   59.8990 C.3    56  MET56       0.0692
    103  N         45.0260   18.7200   56.2920 N.am   57  ASP57      -0.1957
    104  CA        43.8590   18.1900   56.9870 C.3    57  ASP57       0.1840
    105  C         42.6200   18.3130   56.1110 C.2    57  ASP57       0.2622
    106  O         41.5800   18.8090   56.5440 O.2    57  ASP57      -0.2715
    107  CB        43.6310   18.9130   58.3190 C.3    57  ASP57       0.1450
    108  CG        44.7520   18.6700   59.3180 C.2    57  ASP57       0.3671
    109  OD1       45.5570   17.7300   59.1030 O.co2  57  ASP57      -0.2456
    110  OD2       44.8250   19.4090   60.3310 O.co2  57  ASP57      -0.2456
    111  N         42.7440   17.8510   54.8710 N.am   58  TRP58      -0.1960
    112  CA        41.6510   17.8910   53.9140 C.3    58  TRP58       0.1771
    113  C         40.5450   16.9060   54.2650 C.2    58  TRP58       0.2619
    114  O         40.8120   15.7350   54.5390 O.2    58  TRP58      -0.2715
    115  CB        42.1610   17.5530   52.5130 C.3    58  TRP58       0.0590
    116  CG        43.1380   18.5330   51.9600 C.ar   58  TRP58       0.0006
    117  CD1       44.4720   18.6210   52.2480 C.ar   58  TRP58       0.0946
    118  CD2       42.8540   19.5910   51.0360 C.ar   58  TRP58       0.0152
    119  NE1       45.0360   19.6710   51.5590 N.ar   58  TRP58      -0.2442
    120  CE2       44.0640   20.2830   50.8090 C.ar   58  TRP58       0.0810
    121  CE3       41.6930   20.0220   50.3800 C.ar   58  TRP58       0.0012
    122  CZ2       44.1470   21.3870   49.9470 C.ar   58  TRP58       0.0191
    123  CZ3       41.7770   21.1250   49.5210 C.ar   58  TRP58       0.0001
    124  CH2       42.9960   21.7900   49.3140 C.ar   58  TRP58       0.0015
    125  N         39.3030   17.3830   54.2400 N.am   59  ASN59      -0.1972
    126  CA        38.1380   16.5420   54.5050 C.3    59  ASN59       0.1688
    127  C         37.4730   16.1980   53.1760 C.2    59  ASN59       0.2292
    128  O         37.6080   16.9360   52.2020 O.2    59  ASN59      -0.2864
    129  CB        37.1530   17.2590   55.4250 C.3    59  ASN59       0.1181
    130  CG        37.3620   16.9060   56.8800 C.2    59  ASN59       0.2629
    131  OD1       38.3820   16.3320   57.2470 O.2    59  ASN59      -0.2716
    132  ND2       36.3960   17.2480   57.7180 N.am   59  ASN59      -0.0877
    133  N         35.9950   18.8850   51.0000 N.3    62  ASP62      -0.1239
    134  CA        36.8550   20.0360   50.7210 C.3    62  ASP62       0.1674
    135  C         37.3720   20.0250   49.2900 C.2    62  ASP62       0.2266
    136  O         38.1350   19.1320   48.9300 O.2    62  ASP62      -0.2867
    137  CB        38.0830   20.0440   51.6400 C.3    62  ASP62       0.1410
    138  CG        37.7380   20.2930   53.0920 C.2    62  ASP62       0.3668
    139  OD1       36.6040   20.7330   53.3850 O.co2  62  ASP62      -0.2456
    140  OD2       38.6200   20.0620   53.9460 O.co2  62  ASP62      -0.2456
    141  N         38.6300   25.9470   49.1610 N.3    67  GLN67      -0.1245
    142  CA        39.4920   26.1270   50.3200 C.3    67  GLN67       0.1566
    143  C         40.5840   27.1460   50.0420 C.2    67  GLN67       0.2260
    144  O         41.0300   27.8720   50.9370 O.2    67  GLN67      -0.2867
    145  CB        40.0970   24.7770   50.7090 C.3    67  GLN67       0.0367
    146  CG        39.0400   23.7300   51.0250 C.3    67  GLN67       0.0905
    147  CD        38.1170   24.1670   52.1510 C.2    67  GLN67       0.2608
    148  OE1       38.5500   24.3420   53.2900 O.2    67  GLN67      -0.2717
    149  NE2       36.8370   24.3480   51.8360 N.am   67  GLN67      -0.0878
    150  N         40.5760   30.4150   52.4360 N.3    71  TRP71      -0.1227
    151  CA        41.6520   30.6820   53.3670 C.3    71  TRP71       0.1737
    152  C         42.8090   31.4920   52.8350 C.2    71  TRP71       0.2595
    153  O         43.5380   32.1110   53.6060 O.2    71  TRP71      -0.2718
    154  CB        42.1770   29.3700   53.9270 C.3    71  TRP71       0.0564
    155  CG        41.1420   28.5760   54.6380 C.ar   71  TRP71       0.0003
    156  CD1       40.1750   27.7900   54.0770 C.ar   71  TRP71       0.0946
    157  CD2       40.9940   28.4480   56.0540 C.ar   71  TRP71       0.0152
    158  NE1       39.4380   27.1690   55.0590 N.ar   71  TRP71      -0.2442
    159  CE2       39.9210   27.5530   56.2830 C.ar   71  TRP71       0.0810
    160  CE3       41.6680   28.9960   57.1550 C.ar   71  TRP71       0.0012
    161  CZ2       39.5090   27.1910   57.5750 C.ar   71  TRP71       0.0191
    162  CZ3       41.2620   28.6370   58.4400 C.ar   71  TRP71       0.0001
    163  CH2       40.1910   27.7400   58.6370 C.ar   71  TRP71       0.0015
    164  N         42.9840   31.4880   51.5220 N.am   72  LEU72      -0.1980
    165  CA        44.0860   32.2210   50.9040 C.3    72  LEU72       0.1596
    166  C         43.5170   33.2050   49.8790 C.2    72  LEU72       0.2287
    167  O         44.0440   33.3440   48.7750 O.2    72  LEU72      -0.2864
    168  CB        45.0350   31.2170   50.2390 C.3    72  LEU72       0.0297
    169  CG        45.5640   30.1190   51.1810 C.3    72  LEU72       0.0022
    170  CD1       46.1850   28.9880   50.3780 C.3    72  LEU72       0.0001
    171  CD2       46.5760   30.7100   52.1480 C.3    72  LEU72       0.0001
@<TRIPOS>BOND
     1    13    12    2
     2    12    11    1
     3    11    10    1
     4    11    14    1
     5    26    23    1
     6    26    27    1
     7    10     3   am
     8    14    15    1
     9     1     2    1
    10    23    22    1
    11    23    24    1
    12    29    27   ar
    13    29    31   ar
    14    27    28   ar
    15     3     2    1
    16     3     4    2
    17     2     5    1
    18    15    17   ar
    19    15    16   ar
    20    69    70    1
    21    31    32   ar
    22    24    25    2
    23    28    30   ar
    24    17    19   ar
    25    16    18   ar
    26     5     6    1
    27    61    60    2
    28    32    30   ar
    29    70    73    1
    30    70    71    1
    31    73    74    1
    32    60    59    1
    33    19    20   ar
    34     8     7    2
    35    75    71   am
    36    75    76    1
    37    18    20   ar
    38     6     7    1
    39    71    72    2
    40     7     9   am
    41    20    21    1
    42   167   166    2
    43    56    55    1
    44   136   135    2
    45    55    57    1
    46    55    52    1
    47    76    77    1
    48   141   142    1
    49    58    59    1
    50    58    53   am
    51    33    34    1
    52    59    62    1
    53   135   134    1
    54   124   123   ar
    55   124   122   ar
    56   123   121   ar
    57    62    63    1
    58    34    35    1
    59    34    37    1
    60   166   165    1
    61    52    53    1
    62    52    51    1
    63   122   120   ar
    64   143   142    1
    65   143   144    2
    66    53    54    2
    67    77    79   am
    68    77    78    2
    69   168   165    1
    70   168   169    1
    71    35    36    2
    72    79    80    1
    73   142   145    1
    74    82    81    2
    75   170   169    1
    76   121   118   ar
    77   145   146    1
    78   134   133    1
    79   134   137    1
    80    39    37    1
    81   120   118   ar
    82   120   119   ar
    83    93    92    1
    84   165   164    1
    85    63    64    1
    86   146   147    1
    87   118   116   ar
    88    37    38    1
    89    43    42    2
    90   169   171    1
    91    51    42   am
    92    64    65    1
    93    80    81    1
    94    81    83   am
    95   164   152   am
    96   119   117   ar
    97   137   138    1
    98    42    41    1
    99   149   147   am
   100    92    91    1
   101    92    94    1
   102   116   117   ar
   103   116   115    1
   104   147   148    2
   105   128   127    2
   106    91    88    1
   107   150   151    1
   108   115   112    1
   109    83    84    1
   110    65    66    2
   111    84    85    1
   112   152   151    1
   113   152   153    2
   114    87    85   am
   115    87    88    1
   116    90    89    2
   117   138   139   ar
   118   138   140   ar
   119    41    40    1
   120    41    44    1
   121   127   126    1
   122    67    66    1
   123    85    86    2
   124   151   154    1
   125    88    89    1
   126    66    68    1
   127    89    95   am
   128   112   113    1
   129   112   111    1
   130   154   155    1
   131    44    45    1
   132   156   155   ar
   133   156   158   ar
   134   125   113   am
   135   125   126    1
   136   113   114    2
   137   126   129    1
   138   155   157   ar
   139    95    96    1
   140   111   105   am
   141   158   159   ar
   142    96    97    1
   143    96    99    1
   144    45    46    1
   145   129   130    1
   146    97    98    2
   147    97   103   am
   148   157   159   ar
   149   157   160   ar
   150    99   100    1
   151   105   106    2
   152   105   104    1
   153   159   161   ar
   154   103   104    1
   155    46    47    1
   156   130   131    2
   157   130   132   am
   158   104   107    1
   159   160   162   ar
   160   100   101    1
   161   161   163   ar
   162    47    48    2
   163   107   108    1
   164   101   102    1
   165   162   163   ar
   166    48    49    1
   167    48    50    1
   168   109   108   ar
   169   108   110   ar
