@<TRIPOS>MOLECULE
tmp/1q4sA00.pdb
 83 78 0 0 0
SMALL
GASTEIGER

@<TRIPOS>ATOM
      1  N         79.5380   36.6810   11.9260 N.3    64  GLU64      -0.1245
      2  CA        80.0860   35.5360   12.6370 C.3    64  GLU64       0.1567
      3  C         80.1240   34.2520   11.8120 C.2    64  GLU64       0.2260
      4  O         81.1640   33.5750   11.6580 O.2    64  GLU64      -0.2867
      5  CB        79.3030   35.2630   13.9200 C.3    64  GLU64       0.0388
      6  CG        79.8570   34.0230   14.6580 C.3    64  GLU64       0.1160
      7  CD        80.8370   34.3210   15.7880 C.2    64  GLU64       0.3649
      8  OE1       81.4750   33.4400   16.3140 O.co2  64  GLU64      -0.2457
      9  OE2       80.9350   35.5880   16.1610 O.co2  64  GLU64      -0.2457
     10  N         83.5270   32.5560   10.0500 N.3    68  THR68      -0.1218
     11  CA        83.8050   31.2430   10.5890 C.3    68  THR68       0.1862
     12  C         83.6820   30.1430    9.5650 C.2    68  THR68       0.2287
     13  O         84.5740   29.2980    9.4240 O.2    68  THR68      -0.2866
     14  CB        83.0130   30.8960   11.8600 C.3    68  THR68       0.1770
     15  OG1       83.1560   31.9420   12.8000 O.3    68  THR68      -0.2211
     16  CG2       83.6200   29.6270   12.4570 C.3    68  THR68       0.0375
     17  N         89.4990   22.5410   13.4310 N.3    81  MET81      -0.1230
     18  CA        88.2080   23.0750   13.7270 C.3    81  MET81       0.1702
     19  C         88.4560   24.5700   13.8820 C.2    81  MET81       0.2592
     20  O         89.6040   25.0130   14.1670 O.2    81  MET81      -0.2718
     21  CB        87.5110   22.4270   14.9170 C.3    81  MET81       0.0401
     22  CG        88.2560   22.6280   16.2000 C.3    81  MET81       0.0596
     23  SD        87.6320   24.1350   16.9340 S.3    81  MET81      -0.1393
     24  CE        87.4720   23.5470   18.6370 C.3    81  MET81       0.0692
     25  N         87.3920   25.3290   13.6090 N.am   82  ALA82      -0.1966
     26  CA        87.4280   26.7910   13.6990 C.3    82  ALA82       0.1728
     27  C         86.1840   27.3110   14.3690 C.2    82  ALA82       0.2616
     28  O         85.0820   26.8900   14.0190 O.2    82  ALA82      -0.2715
     29  CB        87.5930   27.4200   12.3190 C.3    82  ALA82       0.0334
     30  N         86.3670   28.1990   15.3480 N.am   83  VAL83      -0.1963
     31  CA        85.2520   28.7990   16.0600 C.3    83  VAL83       0.1727
     32  C         85.5420   30.2650   16.2470 C.2    83  VAL83       0.2617
     33  O         86.6990   30.6640   16.3730 O.2    83  VAL83      -0.2715
     34  CB        85.0770   28.2240   17.4450 C.3    83  VAL83       0.0290
     35  CG1       84.6910   26.7680   17.3350 C.3    83  VAL83       0.0023
     36  CG2       86.4040   28.3540   18.1850 C.3    83  VAL83       0.0023
     37  N         84.4910   31.0660   16.2730 N.am   84  GLY84      -0.1940
     38  CA        84.7110   32.4680   16.4970 C.3    84  GLY84       0.2014
     39  C         85.3840   32.6310   17.8600 C.2    84  GLY84       0.2638
     40  O         85.0550   31.9690   18.8450 O.2    84  GLY84      -0.2714
     41  N         86.3430   33.5350   17.9270 N.am   85  GLN85      -0.1977
     42  CA        87.0540   33.8130   19.1670 C.3    85  GLN85       0.1601
     43  C         86.7320   35.2390   19.6400 C.2    85  GLN85       0.2287
     44  O         86.6020   35.5610   20.8320 O.2    85  GLN85      -0.2864
     45  CB        88.5410   33.7240   18.8510 C.3    85  GLN85       0.0394
     46  CG        89.3000   33.8120   20.1520 C.3    85  GLN85       0.0908
     47  CD        90.6830   33.2370   20.0580 C.2    85  GLN85       0.2608
     48  OE1       91.2110   32.7840   21.1110 O.2    85  GLN85      -0.2717
     49  NE2       91.2420   33.2960   18.8380 N.am   85  GLN85      -0.0878
     50  N         89.4750   31.3610   15.9880 N.3   136  ALA136     -0.1245
     51  CA        90.5070   30.4640   16.5120 C.3   136  ALA136      0.1562
     52  C         90.5810   29.2090   15.6430 C.2   136  ALA136      0.2260
     53  O         89.5450   28.6630   15.2330 O.2   136  ALA136     -0.2867
     54  CB        90.1980   30.0520   17.9490 C.3   136  ALA136      0.0290
     55  N         91.9280   25.2880   15.4210 N.3   138  ARG138     -0.1231
     56  CA        92.5360   24.2510   16.2130 C.3   138  ARG138      0.1683
     57  C         92.2150   22.9010   15.6330 C.2   138  ARG138      0.2471
     58  O         91.3360   22.7210   14.7930 O.2   138  ARG138     -0.2730
     59  CB        92.0390   24.2410   17.6610 C.3   138  ARG138      0.0321
     60  CG        92.0190   25.5940   18.4090 C.3   138  ARG138      0.0489
     61  CD        93.3260   25.9340   19.1340 C.3   138  ARG138      0.2205
     62  NE        93.3540   27.1390   19.9940 N.pl3 138  ARG138     -0.0865
     63  CZ        93.5140   28.4170   19.5700 C.cat 138  ARG138      0.5346
     64  NH1       93.6330   28.7190   18.2670 N.pl3 138  ARG138      0.1354
     65  NH2       93.5380   29.4260   20.4740 N.pl3 138  ARG138      0.1354
     66  N         92.9460   21.9300   16.1200 N.am  139  PRO139     -0.2506
     67  CA        92.7480   20.5560   15.6720 C.3   139  PRO139      0.1487
     68  C         91.4760   19.9930   16.2970 C.2   139  PRO139      0.2276
     69  O         91.2640   20.2460   17.4830 O.2   139  PRO139     -0.2865
     70  CB        93.9800   19.8000   16.1780 C.3   139  PRO139      0.0556
     71  CG        94.8390   20.7690   16.9950 C.2   139  PRO139     -0.0078
     72  CD        94.1710   22.1300   16.9480 C.2   139  PRO139      0.0634
     73  N         88.9250   17.8250   18.2620 N.3   141  ARG141     -0.1245
     74  CA        89.2150   16.8740   19.3410 C.3   141  ARG141      0.1563
     75  C         88.8850   15.4350   18.9430 C.2   141  ARG141      0.2260
     76  O         89.4380   14.4280   19.4550 O.2   141  ARG141     -0.2867
     77  CB        88.3640   17.2180   20.5350 C.3   141  ARG141      0.0307
     78  CG        88.6070   18.6280   20.9830 C.3   141  ARG141      0.0489
     79  CD        88.0640   18.8460   22.3770 C.3   141  ARG141      0.2205
     80  NE        88.9790   19.6170   23.2090 N.pl3 141  ARG141     -0.0865
     81  CZ        88.7030   20.0680   24.4300 C.cat 141  ARG141      0.5346
     82  NH1       87.5360   19.8230   25.0350 N.pl3 141  ARG141      0.1354
     83  NH2       89.6470   20.7790   25.0570 N.pl3 141  ARG141      0.1354
@<TRIPOS>BOND
     1    13    12    2
     2    12    11    1
     3    10    11    1
     4    11    14    1
     5     4     3    2
     6     3     2    1
     7    14    16    1
     8    14    15    1
     9     1     2    1
    10    29    26    1
    11     2     5    1
    12    17    18    1
    13    25    26    1
    14    25    19   am
    15    26    27    1
    16    18    19    1
    17    18    21    1
    18    19    20    2
    19     5     6    1
    20    28    27    2
    21    27    30   am
    22     6     7    1
    23    58    57    2
    24    21    22    1
    25    53    52    2
    26    30    31    1
    27    55    56    1
    28    57    66   am
    29    57    56    1
    30    52    51    1
    31    67    66    1
    32    67    70    1
    33    67    68    1
    34     7     9   ar
    35     7     8   ar
    36    50    51    1
    37    31    32    1
    38    31    34    1
    39    66    72    1
    40    70    71    1
    41    22    23    1
    42    56    59    1
    43    32    37   am
    44    32    33    2
    45    37    38    1
    46    68    69    2
    47    38    39    1
    48    51    54    1
    49    23    24    1
    50    72    71    2
    51    35    34    1
    52    34    36    1
    53    59    60    1
    54    39    41   am
    55    39    40    2
    56    41    42    1
    57    73    74    1
    58    64    63    1
    59    60    61    1
    60    49    47   am
    61    45    42    1
    62    45    46    1
    63    75    74    1
    64    75    76    2
    65    61    62    1
    66    42    43    1
    67    74    77    1
    68    63    62    2
    69    63    65    1
    70    43    44    2
    71    47    46    1
    72    47    48    2
    73    77    78    1
    74    78    79    1
    75    79    80    1
    76    80    81    2
    77    81    82    1
    78    81    83    1
