@<TRIPOS>MOLECULE
tmp/1q4sA02.pdb
 72 66 0 0 0
SMALL
GASTEIGER

@<TRIPOS>ATOM
      1  N         76.1430   26.6570    3.0220 N.3     6  LEU6       -0.1245
      2  CA        77.3150   26.5410    3.8380 C.3     6  LEU6        0.1561
      3  C         78.2460   25.5050    3.2170 C.2     6  LEU6        0.2260
      4  O         77.7960   24.6010    2.5160 O.2     6  LEU6       -0.2867
      5  CB        76.9410   26.2070    5.3050 C.3     6  LEU6        0.0270
      6  CG        76.7010   27.4950    6.1130 C.3     6  LEU6        0.0019
      7  CD1       75.5220   28.3290    5.5830 C.3     6  LEU6        0.0001
      8  CD2       76.5260   27.1690    7.5940 C.3     6  LEU6        0.0001
      9  N         70.9380   30.2960   11.7770 N.3    22  ASP22      -0.1239
     10  CA        71.1480   30.8010   10.4380 C.3    22  ASP22       0.1674
     11  C         69.9880   30.5430    9.4910 C.2    22  ASP22       0.2266
     12  O         69.5720   31.4680    8.7660 O.2    22  ASP22      -0.2867
     13  CB        72.4510   30.2620    9.8610 C.3    22  ASP22       0.1410
     14  CG        73.6450   30.4680   10.7690 C.2    22  ASP22       0.3668
     15  OD1       74.3600   31.4480   10.7620 O.co2  22  ASP22      -0.2456
     16  OD2       73.8200   29.4770   11.5930 O.co2  22  ASP22      -0.2456
     17  N         79.5380   36.6810   11.9260 N.3    64  GLU64      -0.1231
     18  CA        80.0860   35.5360   12.6370 C.3    64  GLU64       0.1699
     19  C         80.1240   34.2520   11.8120 C.2    64  GLU64       0.2592
     20  O         81.1640   33.5750   11.6580 O.2    64  GLU64      -0.2718
     21  CB        79.3030   35.2630   13.9200 C.3    64  GLU64       0.0402
     22  CG        79.8570   34.0230   14.6580 C.3    64  GLU64       0.1161
     23  CD        80.8370   34.3210   15.7880 C.2    64  GLU64       0.3649
     24  OE1       81.4750   33.4400   16.3140 O.co2  64  GLU64      -0.2457
     25  OE2       80.9350   35.5880   16.1610 O.co2  64  GLU64      -0.2457
     26  N         78.9410   33.8860   11.3240 N.am   65  MET65      -0.1979
     27  CA        78.8280   32.6750   10.5410 C.3    65  MET65       0.1605
     28  C         79.7550   32.7260    9.2970 C.2    65  MET65       0.2287
     29  O         80.5100   31.7870    8.9710 O.2    65  MET65      -0.2864
     30  CB        77.3220   32.4300   10.1820 C.3    65  MET65       0.0413
     31  CG        77.1020   31.1480    9.3680 C.3    65  MET65       0.0598
     32  SD        77.3920   31.3820    7.5690 S.3    65  MET65      -0.1393
     33  CE        75.8850   32.2970    7.1310 C.3    65  MET65       0.0692
     34  N         83.5270   32.5560   10.0500 N.3    68  THR68      -0.1203
     35  CA        83.8050   31.2430   10.5890 C.3    68  THR68       0.1994
     36  C         83.6820   30.1430    9.5650 C.2    68  THR68       0.2617
     37  O         84.5740   29.2980    9.4240 O.2    68  THR68      -0.2717
     38  CB        83.0130   30.8960   11.8600 C.3    68  THR68       0.1784
     39  OG1       83.1560   31.9420   12.8000 O.3    68  THR68      -0.2211
     40  CG2       83.6200   29.6270   12.4570 C.3    68  THR68       0.0376
     41  N         82.5750   30.1490    8.8460 N.am   69  GLU69      -0.1979
     42  CA        82.4170   29.1260    7.8320 C.3    69  GLU69       0.1602
     43  C         83.4680   29.2810    6.7360 C.2    69  GLU69       0.2287
     44  O         83.9710   28.3110    6.1980 O.2    69  GLU69      -0.2864
     45  CB        80.9750   29.1020    7.3130 C.3    69  GLU69       0.0415
     46  CG        80.0640   28.4520    8.3650 C.3    69  GLU69       0.1163
     47  CD        80.3750   26.9890    8.5590 C.2    69  GLU69       0.3649
     48  OE1       81.1770   26.3720    7.8880 O.co2  69  GLU69      -0.2457
     49  OE2       79.6970   26.4130    9.5310 O.co2  69  GLU69      -0.2457
     50  N         86.3700   27.5080    8.0240 N.3    72  VAL72      -0.1245
     51  CA        86.0420   26.0830    8.0260 C.3    72  VAL72       0.1561
     52  C         86.2590   25.5090    6.6310 C.2    72  VAL72       0.2260
     53  O         86.8500   24.4620    6.4430 O.2    72  VAL72      -0.2867
     54  CB        84.5650   25.8440    8.3710 C.3    72  VAL72       0.0252
     55  CG1       84.1590   24.4390    7.9290 C.3    72  VAL72       0.0019
     56  CG2       84.2860   26.0500    9.8650 C.3    72  VAL72       0.0019
     57  N         87.3920   25.3290   13.6090 N.3    82  ALA82      -0.1231
     58  CA        87.4280   26.7910   13.6990 C.3    82  ALA82       0.1694
     59  C         86.1840   27.3110   14.3690 C.2    82  ALA82       0.2592
     60  O         85.0820   26.8900   14.0190 O.2    82  ALA82      -0.2718
     61  CB        87.5930   27.4200   12.3190 C.3    82  ALA82       0.0304
     62  N         86.3670   28.1990   15.3480 N.am   83  VAL83      -0.1966
     63  CA        85.2520   28.7990   16.0600 C.3    83  VAL83       0.1727
     64  C         85.5420   30.2650   16.2470 C.2    83  VAL83       0.2616
     65  O         86.6990   30.6640   16.3730 O.2    83  VAL83      -0.2715
     66  CB        85.0770   28.2240   17.4450 C.3    83  VAL83       0.0290
     67  CG1       84.6910   26.7680   17.3350 C.3    83  VAL83       0.0023
     68  CG2       86.4040   28.3540   18.1850 C.3    83  VAL83       0.0023
     69  N         84.4910   31.0660   16.2730 N.am   84  GLY84      -0.1955
     70  CA        84.7110   32.4680   16.4970 C.3    84  GLY84       0.1869
     71  C         85.3840   32.6310   17.8600 C.2    84  GLY84       0.2309
     72  O         85.0550   31.9690   18.8450 O.2    84  GLY84      -0.2863
@<TRIPOS>BOND
     1     4     3    2
     2     1     2    1
     3     3     2    1
     4     2     5    1
     5     5     6    1
     6     7     6    1
     7     6     8    1
     8    44    43    2
     9    53    52    2
    10    52    51    1
    11    43    42    1
    12    33    32    1
    13    45    42    1
    14    45    46    1
    15    32    31    1
    16    42    41    1
    17    48    47   ar
    18    55    54    1
    19    50    51    1
    20    51    54    1
    21    46    47    1
    22    54    56    1
    23    47    49   ar
    24    12    11    2
    25    41    36   am
    26    29    28    2
    27    28    27    1
    28    31    30    1
    29    37    36    2
    30    11    10    1
    31    36    35    1
    32    13    10    1
    33    13    14    1
    34    34    35    1
    35    30    27    1
    36    10     9    1
    37    27    26    1
    38    35    38    1
    39    15    14   ar
    40    14    16   ar
    41    26    19   am
    42    20    19    2
    43    19    18    1
    44    38    40    1
    45    38    39    1
    46    17    18    1
    47    61    58    1
    48    18    21    1
    49    57    58    1
    50    58    59    1
    51    21    22    1
    52    60    59    2
    53    59    62   am
    54    22    23    1
    55    62    63    1
    56    23    25   ar
    57    23    24   ar
    58    63    64    1
    59    63    66    1
    60    64    69   am
    61    64    65    2
    62    69    70    1
    63    70    71    1
    64    67    66    1
    65    66    68    1
    66    71    72    2
