@<TRIPOS>MOLECULE
tmp/1q4tA01.pdb
 126 128 0 0 0
SMALL
GASTEIGER

@<TRIPOS>ATOM
      1  N         64.0270   43.6190   15.9380 N.3    49  GLN49      -0.1231
      2  CA        63.7800   43.8070   17.3400 C.3    49  GLN49       0.1698
      3  C         62.4390   44.5450   17.4260 C.2    49  GLN49       0.2592
      4  O         61.8540   44.9100   16.3990 O.2    49  GLN49      -0.2718
      5  CB        64.8890   44.4820   18.1600 C.3    49  GLN49       0.0381
      6  CG        65.8620   45.4230   17.4090 C.3    49  GLN49       0.0905
      7  CD        65.3090   46.8060   17.1930 C.2    49  GLN49       0.2608
      8  OE1       64.1440   46.9550   16.7940 O.2    49  GLN49      -0.2717
      9  NE2       66.1410   47.8210   17.4010 N.am   49  GLN49      -0.0878
     10  N         61.9400   44.7740   18.6310 N.am   50  ARG50      -0.1966
     11  CA        60.6230   45.4010   18.8140 C.3    50  ARG50       0.1729
     12  C         60.4180   46.7930   18.2260 C.2    50  ARG50       0.2616
     13  O         59.2760   47.2070   17.9330 O.2    50  ARG50      -0.2715
     14  CB        60.1360   45.2940   20.2550 C.3    50  ARG50       0.0348
     15  CG        60.8670   46.2140   21.2380 C.3    50  ARG50       0.0492
     16  CD        60.1460   46.1840   22.5650 C.3    50  ARG50       0.2205
     17  NE        60.7970   46.9970   23.5450 N.pl3  50  ARG50      -0.0865
     18  CZ        60.2350   47.3030   24.7100 C.cat  50  ARG50       0.5346
     19  NH1       59.0140   46.8990   25.0740 N.pl3  50  ARG50       0.1354
     20  NH2       60.9480   48.0560   25.5280 N.pl3  50  ARG50       0.1354
     21  N         61.5360   47.5110   18.0490 N.am   51  TRP51      -0.1974
     22  CA        61.4980   48.8510   17.5080 C.3    51  TRP51       0.1640
     23  C         61.3950   48.8630   16.0060 C.2    51  TRP51       0.2290
     24  O         61.3620   49.9170   15.3910 O.2    51  TRP51      -0.2864
     25  CB        62.6500   49.7350   18.0010 C.3    51  TRP51       0.0576
     26  CG        62.6890   49.6490   19.4820 C.ar   51  TRP51       0.0006
     27  CD1       63.4900   48.8610   20.2370 C.ar   51  TRP51       0.0946
     28  CD2       61.8110   50.3280   20.3880 C.ar   51  TRP51       0.0152
     29  NE1       63.1960   49.0260   21.5650 N.ar   51  TRP51      -0.2442
     30  CE2       62.1680   49.9230   21.6940 C.ar   51  TRP51       0.0810
     31  CE3       60.7650   51.2600   20.2240 C.ar   51  TRP51       0.0012
     32  CZ2       61.5190   50.4510   22.8270 C.ar   51  TRP51       0.0191
     33  CZ3       60.1300   51.7610   21.3560 C.ar   51  TRP51       0.0001
     34  CH2       60.5030   51.3680   22.6430 C.ar   51  TRP51       0.0015
     35  N         63.6610   47.6440   13.8200 N.3    53  LEU53      -0.1231
     36  CA        64.9450   47.6180   13.1130 C.3    53  LEU53       0.1693
     37  C         65.6020   46.2360   13.1680 C.2    53  LEU53       0.2592
     38  O         65.2850   45.4050   14.0360 O.2    53  LEU53      -0.2718
     39  CB        65.9400   48.6690   13.6490 C.3    53  LEU53       0.0284
     40  CG        65.5170   50.1260   13.3480 C.3    53  LEU53       0.0019
     41  CD1       65.1410   50.3280   11.8760 C.3    53  LEU53       0.0001
     42  CD2       64.3200   50.5120   14.1930 C.3    53  LEU53       0.0001
     43  N         66.5430   45.9730   12.2220 N.am   54  VAL54      -0.1966
     44  CA        67.2530   44.6850   12.2400 C.3    54  VAL54       0.1727
     45  C         67.9990   44.6100   13.5730 C.2    54  VAL54       0.2616
     46  O         68.6420   45.5590   13.9950 O.2    54  VAL54      -0.2715
     47  CB        68.1770   44.5100   11.0420 C.3    54  VAL54       0.0290
     48  CG1       69.1130   43.3040   11.3020 C.3    54  VAL54       0.0023
     49  CG2       67.2570   44.2430    9.8490 C.3    54  VAL54       0.0023
     50  N         67.8360   43.5140   14.2660 N.am   55  HIS55      -0.1959
     51  CA        68.4600   43.3270   15.5580 C.3    55  HIS55       0.1787
     52  C         69.9920   43.3610   15.4540 C.2    55  HIS55       0.2620
     53  O         70.5890   42.7590   14.5690 O.2    55  HIS55      -0.2715
     54  CB        67.9860   41.9560   16.0490 C.3    55  HIS55       0.0785
     55  CG        68.1220   41.6430   17.5140 C.ar   55  HIS55       0.0821
     56  ND1       69.3560   41.5700   18.1790 N.ar   55  HIS55      -0.2267
     57  CD2       67.1470   41.3280   18.4230 C.ar   55  HIS55       0.1154
     58  CE1       69.0960   41.2200   19.4480 C.ar   55  HIS55       0.1986
     59  NE2       67.7790   41.0340   19.6140 N.ar   55  HIS55      -0.2212
     60  N         70.6420   44.0370   16.3830 N.am   56  GLY56      -0.1954
     61  CA        72.1020   44.0580   16.3340 C.3    56  GLY56       0.1869
     62  C         72.6310   42.6400   16.3290 C.2    56  GLY56       0.2309
     63  O         73.6240   42.3360   15.6520 O.2    56  GLY56      -0.2863
     64  N         73.1230   41.0150   12.8680 N.3    59  TYR59      -0.1241
     65  CA        74.3360   41.2900   12.1240 C.3    59  TYR59       0.1605
     66  C         75.4880   40.4620   12.7020 C.2    59  TYR59       0.2264
     67  O         76.3270   39.8650   11.9800 O.2    59  TYR59      -0.2867
     68  CB        74.7290   42.7660   12.1710 C.3    59  TYR59       0.0534
     69  CG        73.6840   43.7950   11.7270 C.ar   59  TYR59      -0.0201
     70  CD1       72.7390   44.2910   12.6320 C.ar   59  TYR59      -0.0009
     71  CD2       73.7050   44.3660   10.4460 C.ar   59  TYR59      -0.0009
     72  CE1       71.8440   45.3020   12.2670 C.ar   59  TYR59       0.0417
     73  CE2       72.8250   45.3810   10.0660 C.ar   59  TYR59       0.0417
     74  CZ        71.8750   45.8450   10.9830 C.ar   59  TYR59       0.1957
     75  OH        71.0060   46.8730   10.6720 O.3    59  TYR59      -0.2866
     76  N         77.8280   49.3030   14.6710 N.3    91  PHE91      -0.1227
     77  CA        76.6200   49.7210   13.9370 C.3    91  PHE91       0.1736
     78  C         76.6090   51.1730   13.4930 C.2    91  PHE91       0.2595
     79  O         76.5820   52.0910   14.3060 O.2    91  PHE91      -0.2718
     80  CB        75.4070   49.4560   14.8190 C.3    91  PHE91       0.0547
     81  CG        75.4610   48.0470   15.3470 C.ar   91  PHE91      -0.0202
     82  CD1       75.9150   47.7870   16.6430 C.ar   91  PHE91      -0.0042
     83  CD2       75.0450   46.9750   14.5510 C.ar   91  PHE91      -0.0042
     84  CE1       75.9670   46.4900   17.1540 C.ar   91  PHE91      -0.0003
     85  CE2       75.0930   45.6680   15.0450 C.ar   91  PHE91      -0.0003
     86  CZ        75.5610   45.4300   16.3410 C.ar   91  PHE91      -0.0000
     87  N         76.6110   51.3430   12.1670 N.am   92  PHE92      -0.1962
     88  CA        76.6540   52.6750   11.5470 C.3    92  PHE92       0.1771
     89  C         75.3000   53.2480   11.1530 C.2    92  PHE92       0.2619
     90  O         75.0620   54.4500   11.2890 O.2    92  PHE92      -0.2715
     91  CB        77.5360   52.6350   10.2730 C.3    92  PHE92       0.0574
     92  CG        78.9210   52.1000   10.5340 C.ar   92  PHE92      -0.0200
     93  CD1       79.5240   52.2900   11.7800 C.ar   92  PHE92      -0.0042
     94  CD2       79.6310   51.4230    9.5350 C.ar   92  PHE92      -0.0042
     95  CE1       80.8190   51.8150   12.0270 C.ar   92  PHE92      -0.0003
     96  CE2       80.9220   50.9360    9.7690 C.ar   92  PHE92      -0.0003
     97  CZ        81.5080   51.1330   11.0210 C.ar   92  PHE92      -0.0000
     98  N         74.4500   52.3780   10.6380 N.am   93  ARG93      -0.1964
     99  CA        73.1430   52.8010   10.1800 C.3    93  ARG93       0.1714
    100  C         72.2270   51.6080   10.2940 C.2    93  ARG93       0.2458
    101  O         72.6210   50.4760   10.0000 O.2    93  ARG93      -0.2730
    102  CB        73.3110   53.2760    8.7340 C.3    93  ARG93       0.0347
    103  CG        72.0530   53.2810    7.9080 C.3    93  ARG93       0.0492
    104  CD        72.3160   53.7780    6.4920 C.3    93  ARG93       0.2205
    105  NE        73.1950   54.9490    6.4410 N.pl3  93  ARG93      -0.0865
    106  CZ        72.7290   56.1940    6.5310 C.cat  93  ARG93       0.5346
    107  NH1       71.4290   56.4040    6.6940 N.pl3  93  ARG93       0.1354
    108  NH2       73.5700   57.2280    6.4740 N.pl3  93  ARG93       0.1354
    109  N         71.0020   51.8480   10.7700 N.am   94  PRO94      -0.2727
    110  CA        70.0350   50.7450   10.9650 C.3    94  PRO94       0.1402
    111  C         69.4670   50.2290    9.6600 C.2    94  PRO94       0.2269
    112  O         69.5040   50.8840    8.6220 O.2    94  PRO94      -0.2865
    113  CB        68.8660   51.3570   11.7180 C.3    94  PRO94       0.0296
    114  CG        68.9830   52.8790   11.5030 C.3    94  PRO94       0.0237
    115  CD        70.4180   53.1880   11.0640 C.3    94  PRO94       0.0939
    116  N         74.5610   50.6250    1.1570 N.3   126  ARG126     -0.1245
    117  CA        75.1770   51.3550    2.2470 C.3   126  ARG126      0.1563
    118  C         75.7580   50.4420    3.3110 C.2   126  ARG126      0.2260
    119  O         75.2020   49.3870    3.5960 O.2   126  ARG126     -0.2867
    120  CB        74.1310   52.2020    2.9130 C.3   126  ARG126      0.0307
    121  CG        73.4820   53.1190    1.9050 C.3   126  ARG126      0.0489
    122  CD        72.6590   54.1620    2.6370 C.3   126  ARG126      0.2205
    123  NE        71.3520   53.6360    3.0040 N.pl3 126  ARG126     -0.0865
    124  CZ        70.3590   54.3300    3.5560 C.cat 126  ARG126      0.5346
    125  NH1       70.4500   55.6220    3.8610 N.pl3 126  ARG126      0.1354
    126  NH2       69.2320   53.6650    3.7920 N.pl3 126  ARG126      0.1354
@<TRIPOS>BOND
     1   116   117    1
     2   121   122    1
     3   121   120    1
     4   117   120    1
     5   117   118    1
     6   122   123    1
     7   123   124    2
     8   118   119    2
     9   124   126    1
    10   124   125    1
    11   105   104    1
    12   105   106    2
    13   108   106    1
    14   104   103    1
    15   106   107    1
    16   103   102    1
    17   112   111    2
    18   102    99    1
    19    94    96   ar
    20    94    92   ar
    21   111   110    1
    22    96    97   ar
    23    49    47    1
    24   101   100    2
    25    73    71   ar
    26    73    74   ar
    27    99   100    1
    28    99    98    1
    29    91    92    1
    30    91    88    1
    31   100   109   am
    32    71    69   ar
    33    92    93   ar
    34    98    89   am
    35    75    74    1
    36   109   110    1
    37   109   115    1
    38   110   113    1
    39    74    72   ar
    40    97    95   ar
    41    47    48    1
    42    47    44    1
    43   115   114    1
    44    89    90    2
    45    89    88    1
    46   114   113    1
    47    88    87    1
    48    69    68    1
    49    69    70   ar
    50    93    95   ar
    51    41    40    1
    52    67    66    2
    53    65    68    1
    54    65    66    1
    55    65    64    1
    56    87    78   am
    57    43    44    1
    58    43    37   am
    59    44    45    1
    60    72    70   ar
    61    36    37    1
    62    36    39    1
    63    36    35    1
    64    37    38    2
    65    40    39    1
    66    40    42    1
    67    78    77    1
    68    78    79    2
    69    45    46    2
    70    45    50   am
    71    77    76    1
    72    77    80    1
    73    50    51    1
    74    83    85   ar
    75    83    81   ar
    76    53    52    2
    77    80    81    1
    78    85    86   ar
    79    81    82   ar
    80    24    23    2
    81    52    51    1
    82    52    60   am
    83    51    54    1
    84    63    62    2
    85     1     2    1
    86    23    22    1
    87    54    55    1
    88    62    61    1
    89    61    60    1
    90    86    84   ar
    91     4     3    2
    92    82    84   ar
    93     8     7    2
    94     7     9   am
    95     7     6    1
    96     2     3    1
    97     2     5    1
    98     6     5    1
    99     3    10   am
   100    22    25    1
   101    22    21    1
   102    55    56   ar
   103    55    57   ar
   104    13    12    2
   105    25    26    1
   106    21    12   am
   107    56    58   ar
   108    12    11    1
   109    57    59   ar
   110    10    11    1
   111    11    14    1
   112    58    59   ar
   113    26    27   ar
   114    26    28   ar
   115    31    28   ar
   116    31    33   ar
   117    27    29   ar
   118    14    15    1
   119    28    30   ar
   120    15    16    1
   121    33    34   ar
   122    29    30   ar
   123    30    32   ar
   124    16    17    1
   125    34    32   ar
   126    17    18    2
   127    18    19    1
   128    18    20    1
