@<TRIPOS>MOLECULE
tmp/1q4tA00.pdb
 136 127 0 0 0
SMALL
GASTEIGER

@<TRIPOS>ATOM
      1  N         75.6300   26.0910    3.3330 N.3     6  LEU6       -0.1245
      2  CA        76.8400   26.0310    4.1020 C.3     6  LEU6        0.1561
      3  C         77.7840   24.9760    3.5580 C.2     6  LEU6        0.2260
      4  O         77.3600   24.0390    2.9110 O.2     6  LEU6       -0.2867
      5  CB        76.5620   25.7770    5.5760 C.3     6  LEU6        0.0270
      6  CG        76.3030   27.0760    6.3120 C.3     6  LEU6        0.0019
      7  CD1       75.1270   27.8450    5.6930 C.3     6  LEU6        0.0001
      8  CD2       76.0010   26.6920    7.7410 C.3     6  LEU6        0.0001
      9  N         70.4410   29.8930   12.2060 N.3    22  ASP22      -0.1239
     10  CA        70.6950   30.3160   10.8330 C.3    22  ASP22       0.1674
     11  C         69.5270   30.0320    9.9020 C.2    22  ASP22       0.2266
     12  O         69.0900   30.9420    9.1710 O.2    22  ASP22      -0.2867
     13  CB        72.0080   29.7080   10.2920 C.3    22  ASP22       0.1410
     14  CG        73.1730   29.9490   11.2300 C.2    22  ASP22       0.3668
     15  OD1       73.8670   30.9600   11.1620 O.co2  22  ASP22      -0.2456
     16  OD2       73.3250   28.9970   12.1500 O.co2  22  ASP22      -0.2456
     17  N         75.3920   37.6290   14.2050 N.3    61  ALA61      -0.1245
     18  CA        75.2370   36.2270   13.8790 C.3    61  ALA61       0.1562
     19  C         75.5900   35.9050   12.4470 C.2    61  ALA61       0.2260
     20  O         76.1960   34.8760   12.1840 O.2    61  ALA61      -0.2867
     21  CB        73.8020   35.7910   14.1580 C.3    61  ALA61       0.0290
     22  N         79.1690   36.0640   12.2230 N.3    64  GLU64      -0.1231
     23  CA        79.7190   34.9380   12.9150 C.3    64  GLU64       0.1699
     24  C         79.6710   33.6540   12.1130 C.2    64  GLU64       0.2592
     25  O         80.6660   32.9450   11.9670 O.2    64  GLU64      -0.2718
     26  CB        78.9260   34.7370   14.2090 C.3    64  GLU64       0.0402
     27  CG        79.6070   33.6570   15.0680 C.3    64  GLU64       0.1161
     28  CD        80.5080   34.1950   16.1390 C.2    64  GLU64       0.3649
     29  OE1       80.6510   35.3930   16.3870 O.co2  64  GLU64      -0.2457
     30  OE2       81.0380   33.2180   16.8270 O.co2  64  GLU64      -0.2457
     31  N         78.4830   33.3240   11.6310 N.am   65  MET65      -0.1979
     32  CA        78.3770   32.1100   10.8730 C.3    65  MET65       0.1605
     33  C         79.2890   32.1660    9.6320 C.2    65  MET65       0.2287
     34  O         80.0410   31.2210    9.2970 O.2    65  MET65      -0.2864
     35  CB        76.8810   31.9510   10.4500 C.3    65  MET65       0.0413
     36  CG        76.5940   30.7040    9.5840 C.3    65  MET65       0.0598
     37  SD        76.9650   30.9560    7.8200 S.3    65  MET65      -0.1393
     38  CE        75.5410   31.9160    7.3170 C.3    65  MET65       0.0692
     39  N         83.1040   31.9570   10.3570 N.3    68  THR68      -0.1203
     40  CA        83.4500   30.6500   10.8870 C.3    68  THR68       0.1994
     41  C         83.3520   29.5830    9.8220 C.2    68  THR68       0.2617
     42  O         84.2620   28.7450    9.6300 O.2    68  THR68      -0.2717
     43  CB        82.6170   30.2620   12.1140 C.3    68  THR68       0.1784
     44  OG1       82.6980   31.2890   13.0700 O.3    68  THR68      -0.2211
     45  CG2       83.1540   28.9630   12.7380 C.3    68  THR68       0.0376
     46  N         82.2170   29.6130    9.1400 N.am   69  GLU69      -0.1979
     47  CA        82.0420   28.5960    8.1190 C.3    69  GLU69       0.1602
     48  C         83.0940   28.7140    7.0310 C.2    69  GLU69       0.2287
     49  O         83.5760   27.7100    6.5200 O.2    69  GLU69      -0.2864
     50  CB        80.6090   28.5140    7.5830 C.3    69  GLU69       0.0415
     51  CG        79.6380   27.9490    8.6450 C.3    69  GLU69       0.1163
     52  CD        79.8530   26.4820    8.8930 C.2    69  GLU69       0.3649
     53  OE1       80.6580   25.8350    8.2700 O.co2  69  GLU69      -0.2457
     54  OE2       79.1260   25.9500    9.8500 O.co2  69  GLU69      -0.2457
     55  N         85.9520   27.0320    8.3410 N.3    72  VAL72      -0.1245
     56  CA        85.6070   25.6210    8.3350 C.3    72  VAL72       0.1561
     57  C         85.8200   25.0020    6.9400 C.2    72  VAL72       0.2260
     58  O         86.3560   23.9110    6.8330 O.2    72  VAL72      -0.2867
     59  CB        84.1460   25.3690    8.7610 C.3    72  VAL72       0.0252
     60  CG1       83.7320   23.9750    8.2600 C.3    72  VAL72       0.0019
     61  CG2       84.0460   25.4610   10.2960 C.3    72  VAL72       0.0019
     62  N         89.2720   22.1030   13.7160 N.3    81  MET81      -0.1230
     63  CA        88.0380   22.6120   14.1910 C.3    81  MET81       0.1702
     64  C         88.1900   24.1400   14.1450 C.2    81  MET81       0.2592
     65  O         89.2920   24.6790   14.3130 O.2    81  MET81      -0.2718
     66  CB        87.7730   21.9930   15.5810 C.3    81  MET81       0.0401
     67  CG        86.9010   22.8080   16.4730 C.3    81  MET81       0.0596
     68  SD        87.8570   24.1420   17.2100 S.3    81  MET81      -0.1393
     69  CE        87.3000   23.8680   18.9230 C.3    81  MET81       0.0692
     70  N         87.0820   24.8380   13.9060 N.am   82  ALA82      -0.1966
     71  CA        87.0820   26.2990   13.8680 C.3    82  ALA82       0.1728
     72  C         85.8540   26.8190   14.5850 C.2    82  ALA82       0.2616
     73  O         84.7410   26.3940   14.3010 O.2    82  ALA82      -0.2715
     74  CB        87.1240   26.8300   12.4370 C.3    82  ALA82       0.0334
     75  N         86.0470   27.7300   15.5360 N.am   83  VAL83      -0.1963
     76  CA        84.9350   28.3230   16.3030 C.3    83  VAL83       0.1727
     77  C         85.1890   29.8090   16.4740 C.2    83  VAL83       0.2617
     78  O         86.3290   30.2980   16.4150 O.2    83  VAL83      -0.2715
     79  CB        84.7890   27.7470   17.7090 C.3    83  VAL83       0.0290
     80  CG1       84.4530   26.2680   17.6290 C.3    83  VAL83       0.0023
     81  CG2       86.0770   27.9430   18.5130 C.3    83  VAL83       0.0023
     82  N         84.1180   30.5470   16.6590 N.am   84  GLY84      -0.1940
     83  CA        84.2910   31.9740   16.8650 C.3    84  GLY84       0.2014
     84  C         84.9300   32.2240   18.2270 C.2    84  GLY84       0.2638
     85  O         84.4970   31.6540   19.2450 O.2    84  GLY84      -0.2714
     86  N         85.9670   33.0880   18.2670 N.am   85  GLN85      -0.1977
     87  CA        86.5750   33.3790   19.5660 C.3    85  GLN85       0.1601
     88  C         86.2810   34.8240   19.9880 C.2    85  GLN85       0.2287
     89  O         86.1850   35.1600   21.1600 O.2    85  GLN85      -0.2864
     90  CB        88.1010   33.0940   19.5170 C.3    85  GLN85       0.0394
     91  CG        88.8200   33.5470   20.7910 C.3    85  GLN85       0.0908
     92  CD        90.2040   32.9420   20.9470 C.2    85  GLN85       0.2608
     93  OE1       90.6930   32.5690   22.0420 O.2    85  GLN85      -0.2717
     94  NE2       90.8220   32.7430   19.8240 N.am   85  GLN85      -0.0878
     95  N         89.1070   30.9310   16.1290 N.3   136  ALA136     -0.1245
     96  CA        90.1390   30.0470   16.6750 C.3   136  ALA136      0.1562
     97  C         90.1830   28.7590   15.8570 C.2   136  ALA136      0.2260
     98  O         89.1240   28.1680   15.5560 O.2   136  ALA136     -0.2867
     99  CB        89.9220   29.7450   18.1570 C.3   136  ALA136      0.0290
    100  N         91.5850   24.9390   15.8540 N.3   138  ARG138     -0.1231
    101  CA        92.2130   23.9810   16.7440 C.3   138  ARG138      0.1683
    102  C         92.0190   22.6190   16.1620 C.2   138  ARG138      0.2471
    103  O         91.2010   22.4520   15.2720 O.2   138  ARG138     -0.2730
    104  CB        91.5640   23.9280   18.1120 C.3   138  ARG138      0.0321
    105  CG        91.5820   25.2440   18.8740 C.3   138  ARG138      0.0489
    106  CD        92.9380   25.5860   19.4910 C.3   138  ARG138      0.2205
    107  NE        92.9070   26.8140   20.3210 N.pl3 138  ARG138     -0.0865
    108  CZ        92.9980   28.0490   19.7840 C.cat 138  ARG138      0.5346
    109  NH1       93.1170   28.2250   18.4610 N.pl3 138  ARG138      0.1354
    110  NH2       92.9870   29.1380   20.5750 N.pl3 138  ARG138      0.1354
    111  N         92.7820   21.6500   16.6650 N.am  139  PRO139     -0.2506
    112  CA        92.6530   20.2760   16.1550 C.3   139  PRO139      0.1487
    113  C         91.4210   19.6410   16.7990 C.2   139  PRO139      0.2276
    114  O         91.2170   19.8260   18.0200 O.2   139  PRO139     -0.2865
    115  CB        93.9320   19.5570   16.5680 C.3   139  PRO139      0.0556
    116  CG        94.8220   20.5780   17.2720 C.2   139  PRO139     -0.0078
    117  CD        94.0420   21.8650   17.4400 C.2   139  PRO139      0.0634
    118  N         88.7020   17.3290   18.5880 N.3   141  ARG141     -0.1231
    119  CA        88.9040   16.3630   19.6420 C.3   141  ARG141      0.1694
    120  C         88.3880   15.0100   19.1320 C.2   141  ARG141      0.2592
    121  O         88.7470   13.9010   19.5960 O.2   141  ARG141     -0.2718
    122  CB        88.1710   16.8320   20.8760 C.3   141  ARG141      0.0321
    123  CG        88.9850   17.8860   21.5990 C.3   141  ARG141      0.0489
    124  CD        88.2770   18.3650   22.8580 C.3   141  ARG141      0.2205
    125  NE        89.0270   19.3690   23.5980 N.pl3 141  ARG141     -0.0865
    126  CZ        88.5660   19.8960   24.7170 C.cat 141  ARG141      0.5346
    127  NH1       87.3850   19.5330   25.2310 N.pl3 141  ARG141      0.1354
    128  NH2       89.2970   20.8270   25.3210 N.pl3 141  ARG141      0.1354
    129  N         87.5420   15.1970   18.1060 N.am  142  ASP142     -0.1974
    130  CA        86.7740   14.2200   17.3440 C.3   142  ASP142      0.1709
    131  C         87.3740   13.8790   15.9610 C.2   142  ASP142      0.2293
    132  O         88.5050   13.2760   15.9030 O.2   142  ASP142     -0.2864
    133  CB        85.3290   14.7770   17.2170 C.3   142  ASP142      0.1436
    134  CG        84.9540   15.7460   18.3510 C.2   142  ASP142      0.3671
    135  OD1       84.7520   15.3450   19.5380 O.co2 142  ASP142     -0.2456
    136  OD2       84.8550   17.0420   17.9340 O.co2 142  ASP142     -0.2456
@<TRIPOS>BOND
     1     4     3    2
     2     1     2    1
     3     3     2    1
     4     2     5    1
     5     5     6    1
     6     7     6    1
     7     6     8    1
     8    49    48    2
     9    58    57    2
    10    57    56    1
    11    48    47    1
    12    38    37    1
    13    50    47    1
    14    50    51    1
    15    37    36    1
    16    47    46    1
    17    60    59    1
    18    53    52   ar
    19    56    55    1
    20    56    59    1
    21    51    52    1
    22    59    61    1
    23    52    54   ar
    24    46    41   am
    25    12    11    2
    26    34    33    2
    27    36    35    1
    28    42    41    2
    29    33    32    1
    30    41    40    1
    31    11    10    1
    32    13    10    1
    33    13    14    1
    34    39    40    1
    35    35    32    1
    36    10     9    1
    37    32    31    1
    38    40    43    1
    39    15    14   ar
    40    14    16   ar
    41    31    24   am
    42    25    24    2
    43    24    23    1
    44    43    45    1
    45    43    44    1
    46    20    19    2
    47    22    23    1
    48    74    71    1
    49    19    18    1
    50    23    26    1
    51    62    63    1
    52    71    70    1
    53    71    72    1
    54    18    21    1
    55    18    17    1
    56    70    64   am
    57    64    63    1
    58    64    65    2
    59    63    66    1
    60    26    27    1
    61    73    72    2
    62    72    75   am
    63    27    28    1
    64   103   102    2
    65    75    76    1
    66    98    97    2
    67    66    67    1
    68   100   101    1
    69    97    96    1
    70   132   131    2
    71   131   130    1
    72    95    96    1
    73    28    29   ar
    74    28    30   ar
    75   112   115    1
    76   112   111    1
    77   112   113    1
    78   102   111   am
    79   102   101    1
    80    76    77    1
    81    76    79    1
    82    78    77    2
    83    67    68    1
    84    77    82   am
    85   115   116    1
    86    82    83    1
    87   111   117    1
    88    96    99    1
    89   101   104    1
    90   113   114    2
    91    83    84    1
    92    68    69    1
    93   133   130    1
    94   133   134    1
    95   116   117    2
    96   130   129    1
    97    80    79    1
    98    79    81    1
    99   136   134   ar
   100   129   120   am
   101   104   105    1
   102    84    86   am
   103    84    85    2
   104    86    87    1
   105   134   135   ar
   106   109   108    1
   107   118   119    1
   108   105   106    1
   109   120   121    2
   110   120   119    1
   111   106   107    1
   112    90    87    1
   113    90    91    1
   114    87    88    1
   115   119   122    1
   116   108   107    2
   117   108   110    1
   118    94    92   am
   119    88    89    2
   120    91    92    1
   121   122   123    1
   122    92    93    2
   123   123   124    1
   124   124   125    1
   125   125   126    2
   126   126   127    1
   127   126   128    1
