@<TRIPOS>MOLECULE
tmp/1q4xA01.pdb
 83 80 0 0 0
SMALL
GASTEIGER

@<TRIPOS>ATOM
      1  N         17.1690   11.9000   61.5870 N.3    22  VAL22      -0.1245
      2  CA        18.2690   11.1860   60.9330 C.3    22  VAL22       0.1561
      3  C         17.7820   10.2690   59.7960 C.2    22  VAL22       0.2260
      4  O         18.3350   10.2840   58.6920 O.2    22  VAL22      -0.2867
      5  CB        19.0860   10.3610   61.9530 C.3    22  VAL22       0.0252
      6  CG1       20.2520    9.6870   61.2610 C.3    22  VAL22       0.0019
      7  CG2       19.5930   11.2740   63.0600 C.3    22  VAL22       0.0019
      8  N         20.8790   12.3810   52.8000 N.3    27  GLN27      -0.1231
      9  CA        21.8490   11.3280   53.0580 C.3    27  GLN27       0.1698
     10  C         22.1840   11.2560   54.5460 C.2    27  GLN27       0.2593
     11  O         22.6930   10.2750   55.0650 O.2    27  GLN27      -0.2718
     12  CB        23.1090   11.7080   52.2810 C.3    27  GLN27       0.0381
     13  CG        23.0750   13.1700   51.8220 C.3    27  GLN27       0.0905
     14  CD        24.4800   13.6690   51.5690 C.2    27  GLN27       0.2608
     15  OE1       25.2270   13.1540   50.7560 O.2    27  GLN27      -0.2717
     16  NE2       24.8160   14.7470   52.3050 N.am   27  GLN27      -0.0878
     17  N         21.8990   12.3770   55.2170 N.am   28  GLY28      -0.1942
     18  CA        22.6110   12.6300   56.4460 C.3    28  GLY28       0.2014
     19  C         24.1030   12.7330   56.1290 C.2    28  GLY28       0.2639
     20  O         24.5080   12.9380   54.9940 O.2    28  GLY28      -0.2714
     21  N         24.7560   13.4150   57.0770 N.am   29  SER29      -0.1949
     22  CA        25.6750   14.4600   56.6570 C.3    29  SER29       0.1924
     23  C         27.0030   13.8810   56.1890 C.2    29  SER29       0.2314
     24  O         28.0350   14.0280   56.8300 O.2    29  SER29      -0.2863
     25  CB        25.9060   15.3950   57.8440 C.3    29  SER29       0.2116
     26  OG        24.6750   16.0320   58.1870 O.3    29  SER29      -0.2180
     27  N         27.6370   14.9390   52.5670 N.3    31  TRP31      -0.1241
     28  CA        27.8440   15.7200   51.3270 C.3    31  TRP31       0.1605
     29  C         29.3200   16.0110   51.0760 C.2    31  TRP31       0.2264
     30  O         29.8110   17.1320   51.0640 O.2    31  TRP31      -0.2867
     31  CB        27.0460   17.0260   51.3310 C.3    31  TRP31       0.0550
     32  CG        26.5480   17.3520   52.6800 C.ar   31  TRP31       0.0003
     33  CD1       25.5640   16.6510   53.4000 C.ar   31  TRP31       0.0946
     34  CD2       26.9800   18.4510   53.5240 C.ar   31  TRP31       0.0152
     35  NE1       25.4260   17.2410   54.6250 N.ar   31  TRP31      -0.2442
     36  CE2       26.2570   18.3440   54.7430 C.ar   31  TRP31       0.0810
     37  CE3       27.8870   19.4970   53.3570 C.ar   31  TRP31       0.0012
     38  CZ2       26.4780   19.2620   55.7600 C.ar   31  TRP31       0.0191
     39  CZ3       28.1060   20.4130   54.3760 C.ar   31  TRP31       0.0001
     40  CH2       27.3920   20.2970   55.5840 C.ar   31  TRP31       0.0015
     41  N         26.6720   25.8590   65.5370 N.3   142  ASN142     -0.1225
     42  CA        27.1520   24.4960   65.7010 C.3   142  ASN142      0.1785
     43  C         26.0200   23.6100   66.2220 C.2   142  ASN142      0.2597
     44  O         26.0220   23.2240   67.3840 O.2   142  ASN142     -0.2718
     45  CB        28.3070   24.4950   66.7000 C.3   142  ASN142      0.1169
     46  CG        28.7410   23.0960   67.0950 C.2   142  ASN142      0.2627
     47  OD1       27.9380   22.1530   67.1260 O.2   142  ASN142     -0.2716
     48  ND2       30.0190   22.9540   67.4230 N.am  142  ASN142     -0.0877
     49  N         25.0530   23.2780   65.3790 N.am  143  LEU143     -0.1966
     50  CA        23.9430   22.4390   65.8360 C.3   143  LEU143      0.1728
     51  C         24.1400   20.9690   65.4790 C.2   143  LEU143      0.2616
     52  O         24.6460   20.6570   64.3990 O.2   143  LEU143     -0.2715
     53  CB        22.6280   22.9110   65.2070 C.3   143  LEU143      0.0311
     54  CG        22.1840   24.3680   65.3420 C.3   143  LEU143      0.0022
     55  CD1       20.9350   24.5560   64.4960 C.3   143  LEU143      0.0001
     56  CD2       21.9140   24.7330   66.7920 C.3   143  LEU143      0.0001
     57  N         23.7550   20.0620   66.3720 N.am  144  ASP144     -0.1957
     58  CA        23.8550   18.6450   66.0390 C.3   144  ASP144      0.1840
     59  C         22.4900   18.1370   65.5320 C.2   144  ASP144      0.2622
     60  O         21.5300   18.9030   65.4260 O.2   144  ASP144     -0.2715
     61  CB        24.3680   17.7990   67.2260 C.3   144  ASP144      0.1450
     62  CG        23.4660   17.8560   68.4530 C.2   144  ASP144      0.3671
     63  OD1       22.2730   18.1940   68.3220 O.co2 144  ASP144     -0.2456
     64  OD2       23.9570   17.5360   69.5610 O.co2 144  ASP144     -0.2456
     65  N         22.4190   16.8520   65.2040 N.am  145  ASP145     -0.1971
     66  CA        21.1970   16.2470   64.6920 C.3   145  ASP145      0.1709
     67  C         19.9580   16.5200   65.5380 C.2   145  ASP145      0.2293
     68  O         18.9010   16.8830   65.0220 O.2   145  ASP145     -0.2864
     69  CB        21.3850   14.7320   64.5520 C.3   145  ASP145      0.1436
     70  CG        22.3460   14.3570   63.4250 C.2   145  ASP145      0.3671
     71  OD1       22.1520   14.8390   62.2880 O.co2 145  ASP145     -0.2456
     72  OD2       23.2880   13.5690   63.6700 O.co2 145  ASP145     -0.2456
     73  N         24.1610   20.6010   76.3690 N.3   188  ARG188     -0.1245
     74  CA        25.1730   20.8770   75.3580 C.3   188  ARG188      0.1563
     75  C         26.1750   21.9670   75.6940 C.2   188  ARG188      0.2260
     76  O         27.3540   21.8540   75.3520 O.2   188  ARG188     -0.2867
     77  CB        24.5020   21.1890   74.0260 C.3   188  ARG188      0.0307
     78  CG        23.7500   20.0160   73.4660 C.3   188  ARG188      0.0489
     79  CD        23.8810   20.0060   71.9700 C.3   188  ARG188      0.2205
     80  NE        25.2140   19.6070   71.5610 N.pl3 188  ARG188     -0.0865
     81  CZ        25.7650   19.9420   70.4000 C.cat 188  ARG188      0.5346
     82  NH1       25.0960   20.6860   69.5370 N.pl3 188  ARG188      0.1354
     83  NH2       26.9860   19.5320   70.0910 N.pl3 188  ARG188      0.1354
@<TRIPOS>BOND
     1    15    14    2
     2    30    29    2
     3    29    28    1
     4    28    31    1
     5    28    27    1
     6    31    32    1
     7    14    13    1
     8    14    16   am
     9    13    12    1
    10    12     9    1
    11    32    33   ar
    12    32    34   ar
    13     8     9    1
    14     9    10    1
    15    37    34   ar
    16    37    39   ar
    17    33    35   ar
    18    34    36   ar
    19    39    40   ar
    20    10    11    2
    21    10    17   am
    22    35    36   ar
    23    36    38   ar
    24    20    19    2
    25    17    18    1
    26    40    38   ar
    27    19    18    1
    28    19    21   am
    29    23    22    1
    30    23    24    2
    31    22    21    1
    32    22    25    1
    33    25    26    1
    34     4     3    2
    35     3     2    1
    36     2     1    1
    37     2     5    1
    38     6     5    1
    39     5     7    1
    40    71    70   ar
    41    70    72   ar
    42    70    69    1
    43    52    51    2
    44    55    54    1
    45    69    66    1
    46    66    65    1
    47    66    67    1
    48    68    67    2
    49    65    59   am
    50    53    54    1
    51    53    50    1
    52    54    56    1
    53    49    50    1
    54    49    43   am
    55    60    59    2
    56    51    50    1
    57    51    57   am
    58    59    58    1
    59    41    42    1
    60    42    43    1
    61    42    45    1
    62    58    57    1
    63    58    61    1
    64    43    44    2
    65    45    46    1
    66    46    47    2
    67    46    48   am
    68    61    62    1
    69    63    62   ar
    70    62    64   ar
    71    82    81    1
    72    83    81    1
    73    81    80    2
    74    80    79    1
    75    79    78    1
    76    78    77    1
    77    77    74    1
    78    76    75    2
    79    74    75    1
    80    74    73    1
