@<TRIPOS>MOLECULE
tmp/1q4xA00.pdb
 217 206 0 0 0
SMALL
GASTEIGER

@<TRIPOS>ATOM
      1  N         18.2990   13.5420   53.8760 N.3    26  ALA26      -0.1245
      2  CA        18.5570   13.0500   52.5300 C.3    26  ALA26       0.1562
      3  C         19.6230   11.9570   52.5580 C.2    26  ALA26       0.2260
      4  O         19.3560   10.7850   52.3290 O.2    26  ALA26      -0.2867
      5  CB        19.0290   14.2230   51.6700 C.3    26  ALA26       0.0290
      6  N         16.8510   25.6650   37.6980 N.3    47  PHE47      -0.1241
      7  CA        15.4450   25.3530   37.9000 C.3    47  PHE47       0.1605
      8  C         15.0910   23.9290   37.5090 C.2    47  PHE47       0.2264
      9  O         14.4250   23.2210   38.2550 O.2    47  PHE47      -0.2867
     10  CB        14.5550   26.3160   37.1150 C.3    47  PHE47       0.0534
     11  CG        13.0890   26.0010   37.2290 C.ar   47  PHE47      -0.0203
     12  CD1       12.3990   26.2630   38.4050 C.ar   47  PHE47      -0.0042
     13  CD2       12.4090   25.3950   36.1790 C.ar   47  PHE47      -0.0042
     14  CE1       11.0560   25.9230   38.5310 C.ar   47  PHE47      -0.0003
     15  CE2       11.0710   25.0550   36.2950 C.ar   47  PHE47      -0.0003
     16  CZ        10.3920   25.3180   37.4730 C.ar   47  PHE47      -0.0000
     17  N         16.2120   21.6510   40.0900 N.3    50  PHE50      -0.1227
     18  CA        15.3980   21.7970   41.2880 C.3    50  PHE50       0.1736
     19  C         14.1270   20.9900   41.1660 C.2    50  PHE50       0.2596
     20  O         13.7840   20.2500   42.0730 O.2    50  PHE50      -0.2718
     21  CB        15.0580   23.2710   41.5220 C.3    50  PHE50       0.0547
     22  CG        16.2470   24.1130   41.8780 C.ar   50  PHE50      -0.0202
     23  CD1       16.2080   25.4950   41.7230 C.ar   50  PHE50      -0.0042
     24  CD2       17.4190   23.5230   42.3610 C.ar   50  PHE50      -0.0042
     25  CE1       17.3220   26.2850   42.0360 C.ar   50  PHE50      -0.0003
     26  CE2       18.5420   24.2980   42.6800 C.ar   50  PHE50      -0.0003
     27  CZ        18.4930   25.6830   42.5150 C.ar   50  PHE50      -0.0000
     28  N         13.4360   21.1260   40.0400 N.am   51  THR51      -0.1953
     29  CA        12.1920   20.3850   39.8380 C.3    51  THR51       0.1897
     30  C         12.4230   18.8960   40.0220 C.2    51  THR51       0.2313
     31  O         11.4950   18.1590   40.3540 O.2    51  THR51      -0.2863
     32  CB        11.6020   20.5700   38.4250 C.3    51  THR51       0.1794
     33  OG1       12.4460   19.9000   37.4850 O.3    51  THR51      -0.2208
     34  CG2       11.4680   22.0540   38.0680 C.3    51  THR51       0.0378
     35  N         14.6540   17.4510   42.2800 N.3    53  ILE53      -0.1231
     36  CA        14.8560   17.0020   43.6580 C.3    53  ILE53       0.1692
     37  C         13.8520   17.5610   44.6650 C.2    53  ILE53       0.2591
     38  O         13.7690   17.1030   45.8040 O.2    53  ILE53      -0.2718
     39  CB        16.2570   17.3500   44.1240 C.3    53  ILE53       0.0266
     40  CG1       16.4830   18.8600   43.9820 C.3    53  ILE53       0.0019
     41  CG2       17.2530   16.5520   43.3160 C.3    53  ILE53       0.0020
     42  CD1       17.8170   19.3550   44.5100 C.3    53  ILE53       0.0001
     43  N         13.0920   18.5560   44.2330 N.am   54  ILE54      -0.1980
     44  CA        12.0950   19.1960   45.0790 C.3    54  ILE54       0.1595
     45  C         11.1030   18.1830   45.6490 C.2    54  ILE54       0.2287
     46  O         10.6310   18.3320   46.7850 O.2    54  ILE54      -0.2864
     47  CB        11.3170   20.2580   44.2800 C.3    54  ILE54       0.0276
     48  CG1       10.3570   21.0100   45.1980 C.3    54  ILE54       0.0022
     49  CG2       10.5790   19.6080   43.1300 C.3    54  ILE54       0.0022
     50  CD1       11.0510   21.9980   46.0930 C.3    54  ILE54       0.0001
     51  N         12.5880   15.7940   48.2910 N.3    57  ALA57      -0.1245
     52  CA        12.8710   16.7580   49.3600 C.3    57  ALA57       0.1562
     53  C         11.6290   17.0180   50.2210 C.2    57  ALA57       0.2260
     54  O         11.7030   17.0270   51.4480 O.2    57  ALA57      -0.2867
     55  CB        13.3770   18.0730   48.7560 C.3    57  ALA57       0.0290
     56  N         10.6450   13.7990   52.1090 N.3    60  ARG60      -0.1245
     57  CA        11.2470   13.5040   53.4300 C.3    60  ARG60       0.1563
     58  C         10.8040   14.3530   54.6700 C.2    60  ARG60       0.2260
     59  O         11.0210   13.9490   55.7900 O.2    60  ARG60      -0.2867
     60  CB        12.7620   13.3850   53.3360 C.3    60  ARG60       0.0307
     61  CG        13.2430   12.2910   52.3590 C.3    60  ARG60       0.0489
     62  CD        14.7770   12.2850   52.2320 C.3    60  ARG60       0.2205
     63  NE        15.2640   13.1290   51.1250 N.pl3  60  ARG60      -0.0865
     64  CZ        15.4270   14.4590   51.3080 C.cat  60  ARG60       0.5346
     65  NH1       15.1040   15.0820   52.4250 N.pl3  60  ARG60       0.1354
     66  NH2       15.9910   15.1460   50.3650 N.pl3  60  ARG60       0.1354
     67  N          8.2120   24.3420   53.8770 N.3    88  MET88      -0.1245
     68  CA         9.3230   25.1560   53.4260 C.3    88  MET88       0.1570
     69  C         10.2820   25.4870   54.5740 C.2    88  MET88       0.2261
     70  O         11.5040   25.4870   54.3950 O.2    88  MET88      -0.2867
     71  CB         8.7950   26.4460   52.7990 C.3    88  MET88       0.0387
     72  CG         9.8760   27.3470   52.2470 C.3    88  MET88       0.0595
     73  SD        10.8940   26.5260   50.9880 S.3    88  MET88      -0.1393
     74  CE        12.0150   27.8790   50.4980 C.3    88  MET88       0.0692
     75  N         12.4890   22.4990   55.0530 N.3    91  MET91      -0.1230
     76  CA        13.4060   22.2990   53.9450 C.3    91  MET91       0.1702
     77  C         14.5320   23.3180   53.9950 C.2    91  MET91       0.2593
     78  O         15.6990   22.9750   53.7890 O.2    91  MET91      -0.2718
     79  CB        12.6870   22.4250   52.6100 C.3    91  MET91       0.0401
     80  CG        11.6990   21.3210   52.3850 C.3    91  MET91       0.0596
     81  SD        11.2490   21.1740   50.6810 S.3    91  MET91      -0.1393
     82  CE         9.8660   22.3060   50.6180 C.3    91  MET91       0.0692
     83  N         14.1830   24.5710   54.2640 N.am   92  SER92      -0.1952
     84  CA        15.1770   25.6250   54.3250 C.3    92  SER92       0.1924
     85  C         16.1250   25.3650   55.4720 C.2    92  SER92       0.2314
     86  O         17.3410   25.5200   55.3260 O.2    92  SER92      -0.2863
     87  CB        14.5050   26.9750   54.5030 C.3    92  SER92       0.2116
     88  OG        13.6110   27.2110   53.4400 O.3    92  SER92      -0.2180
     89  N         16.9640   22.4990   56.7930 N.3    94  ARG94      -0.1231
     90  CA        17.8340   21.4270   56.3130 C.3    94  ARG94       0.1694
     91  C         18.9050   21.8520   55.3050 C.2    94  ARG94       0.2591
     92  O         19.9890   21.2540   55.2500 O.2    94  ARG94      -0.2718
     93  CB        16.9860   20.3070   55.7270 C.3    94  ARG94       0.0321
     94  CG        16.1660   19.6350   56.7900 C.3    94  ARG94       0.0489
     95  CD        15.3800   18.4850   56.2410 C.3    94  ARG94       0.2205
     96  NE        15.1600   17.5040   57.2860 N.pl3  94  ARG94      -0.0865
     97  CZ        14.6560   16.2870   57.0940 C.cat  94  ARG94       0.5346
     98  NH1       14.5070   15.4700   58.1430 N.pl3  94  ARG94       0.1354
     99  NH2       14.2950   15.8950   55.8690 N.pl3  94  ARG94       0.1354
    100  N         18.6000   22.8750   54.5130 N.am   95  ALA95      -0.1980
    101  CA        19.5410   23.3720   53.5180 C.3    95  ALA95       0.1597
    102  C         20.5490   24.3440   54.1510 C.2    95  ALA95       0.2287
    103  O         21.7450   24.3290   53.8220 O.2    95  ALA95      -0.2864
    104  CB        18.7850   24.0580   52.4140 C.3    95  ALA95       0.0319
    105  N         23.6440   23.1730   55.7740 N.3    98  ARG98      -0.1245
    106  CA        24.5990   22.5370   54.8850 C.3    98  ARG98       0.1563
    107  C         25.3470   23.5680   54.0530 C.2    98  ARG98       0.2260
    108  O         25.7760   23.3000   52.9300 O.2    98  ARG98      -0.2867
    109  CB        23.9010   21.4860   54.0130 C.3    98  ARG98       0.0307
    110  CG        23.3860   20.3330   54.8580 C.3    98  ARG98       0.0489
    111  CD        23.3370   19.0170   54.1240 C.3    98  ARG98       0.2205
    112  NE        21.9920   18.6300   53.7090 N.pl3  98  ARG98      -0.0865
    113  CZ        21.4410   17.4460   53.9770 C.cat  98  ARG98       0.5346
    114  NH1       22.1170   16.5220   54.6660 N.pl3  98  ARG98       0.1354
    115  NH2       20.2090   17.1870   53.5550 N.pl3  98  ARG98       0.1354
    116  N         25.0900   25.8950   49.4820 N.3   106  LEU106     -0.1231
    117  CA        24.2040   25.1100   50.3200 C.3   106  LEU106      0.1693
    118  C         24.1370   23.7920   49.5910 C.2   106  LEU106      0.2593
    119  O         24.6530   23.6610   48.4890 O.2   106  LEU106     -0.2718
    120  CB        22.8040   25.7150   50.3590 C.3   106  LEU106      0.0284
    121  CG        22.6980   27.1480   50.8550 C.3   106  LEU106      0.0019
    122  CD1       21.2530   27.5450   51.0000 C.3   106  LEU106      0.0001
    123  CD2       23.4050   27.2530   52.1850 C.3   106  LEU106      0.0001
    124  N         23.5000   22.8100   50.1980 N.am  107  THR107     -0.1939
    125  CA        23.3610   21.5290   49.5450 C.3   107  THR107      0.2028
    126  C         21.9120   21.1220   49.7090 C.2   107  THR107      0.2642
    127  O         21.4010   20.9990   50.8380 O.2   107  THR107     -0.2714
    128  CB        24.2800   20.4680   50.1530 C.3   107  THR107      0.1808
    129  OG1       25.6450   20.8980   50.0490 O.3   107  THR107     -0.2208
    130  CG2       24.1100   19.1650   49.4110 C.3   107  THR107      0.0379
    131  N         21.2580   20.9260   48.5700 N.am  108  LEU108     -0.1963
    132  CA        19.8500   20.5690   48.5200 C.3   108  LEU108      0.1728
    133  C         19.6390   19.0760   48.2980 C.2   108  LEU108      0.2616
    134  O         20.3000   18.4760   47.4520 O.2   108  LEU108     -0.2715
    135  CB        19.1900   21.3830   47.4160 C.3   108  LEU108      0.0311
    136  CG        19.6370   22.8510   47.3950 C.3   108  LEU108      0.0022
    137  CD1       18.8970   23.5750   46.2640 C.3   108  LEU108      0.0001
    138  CD2       19.3770   23.5360   48.7350 C.3   108  LEU108      0.0001
    139  N         18.7120   18.4880   49.0580 N.am  109  ASN109     -0.1972
    140  CA        18.4120   17.0500   48.9810 C.3   109  ASN109      0.1688
    141  C         19.7270   16.2840   49.2250 C.2   109  ASN109      0.2292
    142  O         19.8930   15.1350   48.8030 O.2   109  ASN109     -0.2864
    143  CB        17.8150   16.7040   47.6000 C.3   109  ASN109      0.1181
    144  CG        16.8880   15.4830   47.6280 C.2   109  ASN109      0.2629
    145  OD1       17.2390   14.4050   47.1550 O.2   109  ASN109     -0.2716
    146  ND2       15.6970   15.6620   48.1680 N.am  109  ASN109     -0.0877
    147  N         20.6460   29.6310   43.0990 N.3   119  LEU119     -0.1245
    148  CA        19.3830   29.4510   43.7900 C.3   119  LEU119      0.1561
    149  C         18.4840   30.6610   43.6070 C.2   119  LEU119      0.2260
    150  O         17.2620   30.5210   43.4960 O.2   119  LEU119     -0.2867
    151  CB        19.6220   29.2230   45.2790 C.3   119  LEU119      0.0270
    152  CG        18.3670   28.8650   46.0770 C.3   119  LEU119      0.0019
    153  CD1       17.8720   27.5240   45.5810 C.3   119  LEU119      0.0001
    154  CD2       18.6520   28.8030   47.5760 C.3   119  LEU119      0.0001
    155  N         17.2680   30.4190   40.0320 N.3   122  GLY122     -0.1210
    156  CA        16.7840   29.0980   39.6850 C.3   122  GLY122      0.1956
    157  C         15.3360   28.9400   40.1360 C.2   122  GLY122      0.2612
    158  O         14.7440   27.8610   40.0010 O.2   122  GLY122     -0.2717
    159  N         14.7680   30.0140   40.6940 N.am  123  GLY123     -0.1942
    160  CA        13.3790   29.9800   41.1270 C.3   123  GLY123      0.2014
    161  C         12.9660   30.5030   42.4990 C.2   123  GLY123      0.2638
    162  O         11.7620   30.6610   42.7520 O.2   123  GLY123     -0.2714
    163  N         13.9250   30.7680   43.3880 N.am  124  LEU124     -0.1977
    164  CA        13.5900   31.2540   44.7290 C.3   124  LEU124      0.1596
    165  C         13.6540   32.7540   44.9530 C.2   124  LEU124      0.2287
    166  O         13.0330   33.2770   45.8800 O.2   124  LEU124     -0.2864
    167  CB        14.4660   30.5850   45.7790 C.3   124  LEU124      0.0297
    168  CG        13.9570   29.2300   46.2360 C.3   124  LEU124      0.0022
    169  CD1       14.7840   28.7710   47.4280 C.3   124  LEU124      0.0001
    170  CD2       12.4920   29.3450   46.5970 C.3   124  LEU124      0.0001
    171  N         17.8700   32.3200   52.9640 N.3   131  ILE131     -0.1245
    172  CA        18.3380   31.0230   53.4120 C.3   131  ILE131      0.1561
    173  C         19.8580   31.0300   53.4880 C.2   131  ILE131      0.2260
    174  O         20.4500   30.4080   54.3700 O.2   131  ILE131     -0.2867
    175  CB        17.8500   29.8870   52.4860 C.3   131  ILE131      0.0252
    176  CG1       16.3200   29.8380   52.4970 C.3   131  ILE131      0.0019
    177  CG2       18.4010   28.5360   52.9720 C.3   131  ILE131      0.0019
    178  CD1       15.7220   28.9010   51.4670 C.3   131  ILE131      0.0001
    179  N          8.0740   32.8340   50.8780 N.3   213  HIS213     -0.1241
    180  CA         8.0120   31.8400   49.8250 C.3   213  HIS213      0.1621
    181  C          6.5640   31.6180   49.4090 C.2   213  HIS213      0.2264
    182  O          6.2770   31.4010   48.2450 O.2   213  HIS213     -0.2867
    183  CB         8.6290   30.5370   50.3100 C.3   213  HIS213      0.0745
    184  CG         8.4660   29.4060   49.3550 C.ar  213  HIS213      0.0817
    185  ND1        7.7500   28.2720   49.6600 N.ar  213  HIS213     -0.2268
    186  CD2        8.8970   29.2460   48.0810 C.ar  213  HIS213      0.1154
    187  CE1        7.7410   27.4630   48.6180 C.ar  213  HIS213      0.1986
    188  NE2        8.4300   28.0330   47.6480 N.ar  213  HIS213     -0.2212
    189  N          5.9520   22.7530   37.3380 N.3   229  PHE229     -0.1228
    190  CA         6.1100   22.3200   38.7110 C.3   229  PHE229      0.1721
    191  C          5.6760   20.9050   39.0500 C.2   229  PHE229      0.2437
    192  O          4.5930   20.4620   38.6770 O.2   229  PHE229     -0.2733
    193  CB         5.3810   23.2970   39.6240 C.3   229  PHE229      0.0547
    194  CG         5.7770   24.7160   39.4100 C.ar  229  PHE229     -0.0202
    195  CD1        4.9870   25.5670   38.6490 C.ar  229  PHE229     -0.0042
    196  CD2        6.9520   25.2000   39.9550 C.ar  229  PHE229     -0.0042
    197  CE1        5.3600   26.8860   38.4350 C.ar  229  PHE229     -0.0003
    198  CE2        7.3350   26.5130   39.7490 C.ar  229  PHE229     -0.0003
    199  CZ         6.5350   27.3620   38.9860 C.ar  229  PHE229     -0.0000
    200  N          6.5250   20.1750   39.7880 N.am  230  PRO230     -0.2729
    201  CA         6.1590   18.8080   40.1540 C.3   230  PRO230      0.1401
    202  C          4.8310   18.8110   40.9130 C.2   230  PRO230      0.2269
    203  O          4.5820   19.6720   41.7610 O.2   230  PRO230     -0.2865
    204  CB         7.3240   18.3680   41.0300 C.3   230  PRO230      0.0296
    205  CG         8.4850   19.1450   40.4620 C.3   230  PRO230      0.0237
    206  CD         7.8750   20.5120   40.2760 C.3   230  PRO230      0.0939
    207  N          4.7890   19.4290   44.6130 N.3   233  PHE233     -0.1241
    208  CA         5.1250   20.7850   44.9650 C.3   233  PHE233      0.1605
    209  C          3.8180   21.5550   44.9890 C.2   233  PHE233      0.2264
    210  O          3.5610   22.3070   45.9230 O.2   233  PHE233     -0.2867
    211  CB         6.0660   21.3920   43.9230 C.3   233  PHE233      0.0534
    212  CG         6.3950   22.8250   44.1790 C.ar  233  PHE233     -0.0203
    213  CD1        7.4430   23.1720   45.0240 C.ar  233  PHE233     -0.0042
    214  CD2        5.6240   23.8350   43.6090 C.ar  233  PHE233     -0.0042
    215  CE1        7.7130   24.5090   45.2990 C.ar  233  PHE233     -0.0003
    216  CE2        5.8840   25.1740   43.8780 C.ar  233  PHE233     -0.0003
    217  CZ         6.9300   25.5150   44.7240 C.ar  233  PHE233     -0.0000
@<TRIPOS>BOND
     1    13    15   ar
     2    13    11   ar
     3    15    16   ar
     4    10    11    1
     5    10     7    1
     6    11    12   ar
     7   189   190    1
     8    16    14   ar
     9    33    32    1
    10     8     7    1
    11     8     9    2
    12     6     7    1
    13    34    32    1
    14    12    14   ar
    15    32    29    1
    16   197   195   ar
    17   197   199   ar
    18   195   194   ar
    19   192   191    2
    20   190   191    1
    21   190   193    1
    22   199   198   ar
    23   191   200   am
    24   194   193    1
    25   194   196   ar
    26   156   155    1
    27   156   157    1
    28   198   196   ar
    29   200   201    1
    30   200   206    1
    31    29    30    1
    32    29    28    1
    33   158   157    2
    34    30    31    2
    35    28    19   am
    36    17    18    1
    37   157   159   am
    38   201   202    1
    39   201   204    1
    40   206   205    1
    41   205   204    1
    42   159   160    1
    43   202   203    2
    44   160   161    1
    45    19    18    1
    46    19    20    2
    47    18    21    1
    48    21    22    1
    49    23    22   ar
    50    23    25   ar
    51    22    24   ar
    52    25    27   ar
    53    35    36    1
    54    24    26   ar
    55   161   162    2
    56   161   163   am
    57    27    26   ar
    58   147   148    1
    59    49    47    1
    60    41    39    1
    61   163   164    1
    62   150   149    2
    63   149   148    1
    64   214   216   ar
    65   214   212   ar
    66    36    39    1
    67    36    37    1
    68   148   151    1
    69   216   217   ar
    70   211   212    1
    71   211   208    1
    72    40    39    1
    73    40    42    1
    74   212   213   ar
    75    43    37   am
    76    43    44    1
    77    47    44    1
    78    47    48    1
    79   207   208    1
    80    37    38    2
    81   217   215   ar
    82   164   165    1
    83   164   167    1
    84   165   166    2
    85   208   209    1
    86   209   210    2
    87   213   215   ar
    88    44    45    1
    89    48    50    1
    90   151   152    1
    91   153   152    1
    92    45    46    2
    93   167   168    1
    94   152   154    1
    95   168   170    1
    96   168   169    1
    97   137   136    1
    98   145   144    2
    99   136   135    1
   100   136   138    1
   101   135   132    1
   102   134   133    2
   103   143   144    1
   104   143   140    1
   105   144   146   am
   106   188   186   ar
   107   188   187   ar
   108   186   184   ar
   109   182   181    2
   110    51    52    1
   111   133   132    1
   112   133   139   am
   113   119   118    2
   114   132   131    1
   115   131   126   am
   116   187   185   ar
   117    55    52    1
   118   142   141    2
   119   140   139    1
   120   140   141    1
   121   184   185   ar
   122   184   183    1
   123    52    53    1
   124   181   180    1
   125   130   128    1
   126   116   117    1
   127   125   126    1
   128   125   128    1
   129   125   124    1
   130   118   124   am
   131   118   117    1
   132   126   127    2
   133   180   183    1
   134   180   179    1
   135   129   128    1
   136    53    54    2
   137   117   120    1
   138   120   121    1
   139    66    64    1
   140    74    73    1
   141    82    81    1
   142    81    80    1
   143   121   122    1
   144   121   123    1
   145    73    72    1
   146    63    64    2
   147    63    62    1
   148    64    65    1
   149   178   176    1
   150     5     2    1
   151    56    57    1
   152    62    61    1
   153    72    71    1
   154     4     3    2
   155    61    60    1
   156    80    79    1
   157   104   101    1
   158   175   176    1
   159   175   177    1
   160   175   172    1
   161     2     3    1
   162     2     1    1
   163    79    76    1
   164    71    68    1
   165   108   107    2
   166   171   172    1
   167    60    57    1
   168   172   173    1
   169    68    67    1
   170    68    69    1
   171    57    58    1
   172    88    87    1
   173   173   174    2
   174   101   102    1
   175   101   100    1
   176   115   113    1
   177   112   113    2
   178   112   111    1
   179    78    77    2
   180   103   102    2
   181    76    77    1
   182    76    75    1
   183   113   114    1
   184    77    83   am
   185   109   110    1
   186   109   106    1
   187   107   106    1
   188   111   110    1
   189    83    84    1
   190    84    87    1
   191    84    85    1
   192    70    69    2
   193   100    91   am
   194    58    59    2
   195   106   105    1
   196    92    91    2
   197    91    90    1
   198    86    85    2
   199    93    90    1
   200    93    94    1
   201    99    97    1
   202    95    94    1
   203    95    96    1
   204    90    89    1
   205    97    96    2
   206    97    98    1
