@<TRIPOS>MOLECULE
tmp/1q51B00.pdb
 167 157 0 0 0
SMALL
GASTEIGER

@<TRIPOS>ATOM
      1  N         36.2250  -17.7380  159.0310 N.3    39  GLU39      -0.1231
      2  CA        37.4470  -17.0060  159.4060 C.3    39  GLU39       0.1699
      3  C         37.5210  -15.6630  158.7540 C.2    39  GLU39       0.2592
      4  O         38.1900  -14.7790  159.2780 O.2    39  GLU39      -0.2718
      5  CB        38.7500  -17.7280  158.9970 C.3    39  GLU39       0.0402
      6  CG        38.6710  -19.2340  158.8350 C.3    39  GLU39       0.1161
      7  CD        38.1090  -19.6550  157.4870 C.2    39  GLU39       0.3649
      8  OE1       38.6250  -19.2010  156.4360 O.co2  39  GLU39      -0.2457
      9  OE2       37.1520  -20.4490  157.5080 O.co2  39  GLU39      -0.2457
     10  N         36.8920  -15.5200  157.5910 N.am   40  VAL40      -0.1966
     11  CA        36.9460  -14.2650  156.8440 C.3    40  VAL40       0.1727
     12  C         35.5490  -13.6440  156.7020 C.2    40  VAL40       0.2616
     13  O         35.2450  -12.9800  155.6940 O.2    40  VAL40      -0.2715
     14  CB        37.6610  -14.4430  155.4560 C.3    40  VAL40       0.0290
     15  CG1       39.1900  -14.5940  155.6380 C.3    40  VAL40       0.0023
     16  CG2       37.0920  -15.6510  154.6590 C.3    40  VAL40       0.0023
     17  N         34.7220  -13.8620  157.7290 N.am   41  ARG41      -0.1977
     18  CA        33.3500  -13.3610  157.7650 C.3    41  ARG41       0.1597
     19  C         32.5580  -13.8330  156.5410 C.2    41  ARG41       0.2287
     20  O         31.7070  -13.1170  156.0030 O.2    41  ARG41      -0.2864
     21  CB        33.3300  -11.8340  157.8590 C.3    41  ARG41       0.0334
     22  CG        33.7880  -11.2920  159.1810 C.3    41  ARG41       0.0492
     23  CD        32.8510  -11.6080  160.3270 C.3    41  ARG41       0.2205
     24  NE        33.2010  -10.8110  161.4910 N.pl3  41  ARG41      -0.0865
     25  CZ        33.9550  -11.2300  162.5000 C.cat  41  ARG41       0.5346
     26  NH1       34.4420  -12.4740  162.5290 N.pl3  41  ARG41       0.1354
     27  NH2       34.2050  -10.3900  163.4990 N.pl3  41  ARG41       0.1354
     28  N         33.3160  -14.1840  153.4620 N.3    43  ALA43      -0.1231
     29  CA        33.4920  -13.4960  152.1870 C.3    43  ALA43       0.1694
     30  C         33.6220  -14.5200  151.0700 C.2    43  ALA43       0.2592
     31  O         34.1560  -15.6330  151.2740 O.2    43  ALA43      -0.2718
     32  CB        34.7010  -12.6160  152.2070 C.3    43  ALA43       0.0304
     33  N         33.1390  -14.1620  149.8860 N.am   44  PHE44      -0.1976
     34  CA        33.2950  -15.0580  148.7610 C.3    44  PHE44       0.1639
     35  C         34.4320  -14.6500  147.8430 C.2    44  PHE44       0.2290
     36  O         34.5320  -13.4910  147.4460 O.2    44  PHE44      -0.2864
     37  CB        31.9910  -15.2450  147.9740 C.3    44  PHE44       0.0560
     38  CG        31.3270  -13.9520  147.5420 C.ar   44  PHE44      -0.0200
     39  CD1       31.8280  -13.2030  146.4710 C.ar   44  PHE44      -0.0042
     40  CD2       30.1820  -13.5120  148.1770 C.ar   44  PHE44      -0.0042
     41  CE1       31.2010  -12.0160  146.0660 C.ar   44  PHE44      -0.0003
     42  CE2       29.5370  -12.3340  147.7670 C.ar   44  PHE44      -0.0003
     43  CZ        30.0420  -11.5910  146.7170 C.ar   44  PHE44      -0.0000
     44  N         38.4670  -17.7460  164.8940 N.3    78  LYS78      -0.1231
     45  CA        39.4250  -16.7440  165.3290 C.3    78  LYS78       0.1693
     46  C         38.8910  -15.7770  166.3920 C.2    78  LYS78       0.2592
     47  O         39.5800  -15.5100  167.3800 O.2    78  LYS78      -0.2718
     48  CB        40.0080  -15.9890  164.1290 C.3    78  LYS78       0.0285
     49  CG        41.4600  -15.5080  164.3540 C.3    78  LYS78       0.0035
     50  CD        42.1400  -14.9600  163.0710 C.3    78  LYS78       0.0206
     51  CE        43.2630  -13.9790  163.4270 C.3    78  LYS78       0.1093
     52  NZ        42.8930  -12.5550  163.1590 N.3    78  LYS78      -0.1314
     53  N         37.6740  -15.2570  166.2170 N.am   79  ASP79      -0.1974
     54  CA        37.1840  -14.2670  167.1710 C.3    79  ASP79       0.1709
     55  C         35.7340  -14.4440  167.6590 C.2    79  ASP79       0.2293
     56  O         35.2210  -13.5780  168.3710 O.2    79  ASP79      -0.2864
     57  CB        37.4690  -12.8380  166.6510 C.3    79  ASP79       0.1436
     58  CG        36.6230  -12.4650  165.4200 C.2    79  ASP79       0.3671
     59  OD1       35.9870  -13.3520  164.8000 O.co2  79  ASP79      -0.2456
     60  OD2       36.5240  -11.2990  164.9910 O.co2  79  ASP79      -0.2456
     61  N         30.0840  -11.4900  153.9830 N.3    86  SER86      -0.1217
     62  CA        30.5480  -10.1090  154.0250 C.3    86  SER86       0.1889
     63  C         30.8870   -9.6070  152.6520 C.2    86  SER86       0.2288
     64  O         31.5170   -8.5840  152.5230 O.2    86  SER86      -0.2866
     65  CB        31.7710   -9.9480  154.9390 C.3    86  SER86       0.2089
     66  OG        32.8060  -10.8600  154.5690 O.3    86  SER86      -0.2183
     67  N         32.4590   -9.7540  148.6120 N.3    88  GLY88      -0.1210
     68  CA        33.6120  -10.1880  147.8470 C.3    88  GLY88       0.1956
     69  C         34.8830  -10.1390  148.6710 C.2    88  GLY88       0.2612
     70  O         35.1440   -9.1820  149.3890 O.2    88  GLY88      -0.2717
     71  N         35.6510  -11.2100  148.5740 N.am   89  ASP89      -0.1959
     72  CA        36.9070  -11.3530  149.2710 C.3    89  ASP89       0.1840
     73  C         37.8760  -10.2870  148.7190 C.2    89  ASP89       0.2621
     74  O         38.1750  -10.2750  147.5250 O.2    89  ASP89      -0.2715
     75  CB        37.3710  -12.8070  149.0810 C.3    89  ASP89       0.1450
     76  CG        38.6240  -13.1410  149.8480 C.2    89  ASP89       0.3671
     77  OD1       39.4520  -12.2360  150.0400 O.co2  89  ASP89      -0.2456
     78  OD2       38.8700  -14.3000  150.2720 O.co2  89  ASP89      -0.2456
     79  N         38.3080   -9.3760  149.5970 N.am   90  GLN90      -0.1977
     80  CA        39.1330   -8.2110  149.2230 C.3    90  GLN90       0.1601
     81  C         40.6150   -8.3910  149.5890 C.2    90  GLN90       0.2287
     82  O         41.3660   -9.1070  148.9060 O.2    90  GLN90      -0.2864
     83  CB        38.5800   -6.9330  149.8840 C.3    90  GLN90       0.0394
     84  CG        38.5710   -5.6590  148.9760 C.3    90  GLN90       0.0908
     85  CD        37.1840   -5.0180  148.8360 C.2    90  GLN90       0.2608
     86  OE1       36.9340   -4.2690  147.8810 O.2    90  GLN90      -0.2717
     87  NE2       36.2810   -5.3160  149.7810 N.am   90  GLN90      -0.0878
     88  N         31.9080  -10.7950  138.3640 N.3   100  LEU100     -0.1245
     89  CA        30.4500  -10.6360  138.2450 C.3   100  LEU100      0.1561
     90  C         29.8790  -12.0540  138.0550 C.2   100  LEU100      0.2260
     91  O         28.8090  -12.2540  137.4740 O.2   100  LEU100     -0.2867
     92  CB        30.0920   -9.7920  136.9960 C.3   100  LEU100      0.0270
     93  CG        30.3020   -8.2760  136.8330 C.3   100  LEU100      0.0019
     94  CD1       31.5630   -7.6760  137.5070 C.3   100  LEU100      0.0001
     95  CD2       30.2640   -7.9640  135.3460 C.3   100  LEU100      0.0001
     96  N         29.0940  -13.4480  140.5670 N.3   102  ILE102     -0.1245
     97  CA        28.0120  -13.3050  141.5630 C.3   102  ILE102      0.1561
     98  C         26.6520  -12.8520  141.0060 C.2   102  ILE102      0.2260
     99  O         25.6070  -13.2600  141.5100 O.2   102  ILE102     -0.2867
    100  CB        28.4260  -12.4410  142.7870 C.3   102  ILE102      0.0252
    101  CG1       27.5330  -12.7590  144.0000 C.3   102  ILE102      0.0019
    102  CG2       28.3340  -10.9520  142.4940 C.3   102  ILE102      0.0019
    103  CD1       27.8180  -14.0990  144.6620 C.3   102  ILE102      0.0001
    104  N         26.6820  -10.9750  160.2020 N.3   123  TRP123     -0.1241
    105  CA        26.9470   -9.9230  159.2280 C.3   123  TRP123      0.1605
    106  C         26.4300  -10.2900  157.8370 C.2   123  TRP123      0.2264
    107  O         26.6510  -11.3940  157.3490 O.2   123  TRP123     -0.2867
    108  CB        28.4500   -9.6070  159.1460 C.3   123  TRP123      0.0550
    109  CG        28.9170   -8.8620  160.3240 C.ar  123  TRP123      0.0003
    110  CD1       29.5620   -9.3790  161.3940 C.ar  123  TRP123      0.0946
    111  CD2       28.7370   -7.4660  160.6020 C.ar  123  TRP123      0.0152
    112  NE1       29.7970   -8.4010  162.3290 N.ar  123  TRP123     -0.2442
    113  CE2       29.3160   -7.2120  161.8670 C.ar  123  TRP123      0.0810
    114  CE3       28.1440   -6.3990  159.9150 C.ar  123  TRP123      0.0012
    115  CZ2       29.3330   -5.9380  162.4580 C.ar  123  TRP123      0.0191
    116  CZ3       28.1440   -5.1320  160.5090 C.ar  123  TRP123      0.0001
    117  CH2       28.7450   -4.9120  161.7580 C.ar  123  TRP123      0.0015
    118  N         27.0050   -8.0880  154.6110 N.3   125  ALA125     -0.1231
    119  CA        27.6100   -6.8450  154.1030 C.3   125  ALA125      0.1694
    120  C         27.9630   -6.9180  152.6180 C.2   125  ALA125      0.2593
    121  O         28.1770   -8.0060  152.0790 O.2   125  ALA125     -0.2718
    122  CB        28.8310   -6.4730  154.9260 C.3   125  ALA125      0.0304
    123  N         27.9870   -5.7580  151.9610 N.am  126  GLY126     -0.1942
    124  CA        28.2450   -5.6630  150.5230 C.3   126  GLY126      0.2014
    125  C         27.4590   -6.6880  149.7060 C.2   126  GLY126      0.2639
    126  O         26.2450   -6.7950  149.8290 O.2   126  GLY126     -0.2714
    127  N         28.1670   -7.4650  148.8960 N.am  127  GLY127     -0.1954
    128  CA        27.5630   -8.4880  148.0700 C.3   127  GLY127      0.1869
    129  C         26.7530   -9.5020  148.8470 C.2   127  GLY127      0.2309
    130  O         25.8030  -10.1150  148.3040 O.2   127  GLY127     -0.2863
    131  N         24.5110   -4.2290  156.5460 N.3   148  LYS148     -0.1245
    132  CA        25.3980   -3.0960  156.3190 C.3   148  LYS148      0.1561
    133  C         25.7430   -3.0640  154.8550 C.2   148  LYS148      0.2260
    134  O         26.3790   -3.9720  154.3380 O.2   148  LYS148     -0.2867
    135  CB        26.6920   -3.2010  157.1470 C.3   148  LYS148      0.0271
    136  CG        27.2750   -1.8540  157.5140 C.3   148  LYS148      0.0035
    137  CD        28.7300   -1.8760  158.1480 C.3   148  LYS148      0.0206
    138  CE        29.1880   -0.4030  158.5790 C.3   148  LYS148      0.1093
    139  NZ        28.0280    0.4040  159.2410 N.3   148  LYS148     -0.1314
    140  N         27.9890   -1.6030  152.5080 N.3   150  THR150     -0.1203
    141  CA        29.2710   -0.9090  152.5590 C.3   150  THR150      0.1994
    142  C         29.8620   -0.5730  151.1920 C.2   150  THR150      0.2617
    143  O         30.9230    0.0500  151.1250 O.2   150  THR150     -0.2717
    144  CB        30.2600   -1.8110  153.2840 C.3   150  THR150      0.1784
    145  OG1       30.0700   -3.1670  152.8340 O.3   150  THR150     -0.2211
    146  CG2       29.9690   -1.8600  154.7840 C.3   150  THR150      0.0376
    147  N         29.2030   -0.9910  150.1130 N.am  151  ASP151     -0.1973
    148  CA        29.7150   -0.7990  148.7470 C.3   151  ASP151      0.1709
    149  C         30.3820    0.5690  148.5170 C.2   151  ASP151      0.2293
    150  O         31.5330    0.6450  148.1030 O.2   151  ASP151     -0.2864
    151  CB        28.5850   -0.9730  147.7080 C.3   151  ASP151      0.1436
    152  CG        28.1970   -2.4310  147.4710 C.2   151  ASP151      0.3671
    153  OD1       28.9860   -3.3610  147.8370 O.co2 151  ASP151     -0.2456
    154  OD2       27.0870   -2.7220  146.9250 O.co2 151  ASP151     -0.2456
    155  N         33.9820    1.6220  149.6470 N.3   154  VAL154     -0.1245
    156  CA        35.1380    1.1690  148.8740 C.3   154  VAL154      0.1561
    157  C         35.1130    1.5830  147.4040 C.2   154  VAL154      0.2260
    158  O         35.9540    1.1430  146.6180 O.2   154  VAL154     -0.2867
    159  CB        35.3290   -0.3500  149.0000 C.3   154  VAL154      0.0252
    160  CG1       35.2100   -0.7930  150.4940 C.3   154  VAL154      0.0019
    161  CG2       34.3340   -1.1100  148.1090 C.3   154  VAL154      0.0019
    162  N         32.6610    0.9440  145.2820 N.3   156  SER156     -0.1217
    163  CA        31.8540   -0.0070  144.5240 C.3   156  SER156      0.1889
    164  C         30.3490    0.2980  144.6630 C.2   156  SER156      0.2288
    165  O         29.9650    1.1850  145.4270 O.2   156  SER156     -0.2866
    166  CB        32.1570   -1.4100  145.0160 C.3   156  SER156      0.2089
    167  OG        31.4270   -2.3330  144.2540 O.3   156  SER156     -0.2183
@<TRIPOS>BOND
     1    95    93    1
     2    93    92    1
     3    93    94    1
     4    92    89    1
     5    91    90    2
     6    90    89    1
     7    89    88    1
     8    96    97    1
     9    98    99    2
    10    98    97    1
    11    97   100    1
    12   102   100    1
    13   100   101    1
    14   101   103    1
    15   167   166    1
    16   163   164    1
    17   163   166    1
    18   163   162    1
    19   164   165    2
    20    41    39   ar
    21    41    43   ar
    22    39    38   ar
    23   158   157    2
    24    43    42   ar
    25   154   152   ar
    26   157   156    1
    27    36    35    2
    28   152   151    1
    29   152   153   ar
    30    74    73    2
    31    38    37    1
    32    38    40   ar
    33   151   148    1
    34    42    40   ar
    35    35    34    1
    36    68    67    1
    37    68    69    1
    38    86    85    2
    39    37    34    1
    40   128   129    1
    41   128   127    1
    42   150   149    2
    43   161   159    1
    44   130   129    2
    45   149   148    1
    46    71    69   am
    47    71    72    1
    48    69    70    2
    49    73    72    1
    50    73    79   am
    51   148   147    1
    52    34    33    1
    53    85    84    1
    54    85    87   am
    55   156   159    1
    56   156   155    1
    57   127   125   am
    58    82    81    2
    59    84    83    1
    60   159   160    1
    61    75    72    1
    62    75    76    1
    63    80    81    1
    64    80    79    1
    65    80    83    1
    66   125   126    2
    67   125   124    1
    68    76    77   ar
    69    76    78   ar
    70    33    30   am
    71   147   142   am
    72   124   123    1
    73    30    31    2
    74    30    29    1
    75   143   142    2
    76   142   141    1
    77   123   120   am
    78   121   120    2
    79    29    32    1
    80    29    28    1
    81   140   141    1
    82    64    63    2
    83   141   144    1
    84   120   119    1
    85    63    62    1
    86   145   144    1
    87   144   146    1
    88    61    62    1
    89    62    65    1
    90   119   118    1
    91   119   122    1
    92   134   133    2
    93    66    65    1
    94    16    14    1
    95   133   132    1
    96    14    15    1
    97    14    11    1
    98    13    12    2
    99    20    19    2
   100   132   131    1
   101   132   135    1
   102     8     7   ar
   103    19    18    1
   104    12    11    1
   105    12    17   am
   106    11    10    1
   107   135   136    1
   108   107   106    2
   109     7     9   ar
   110     7     6    1
   111   136   137    1
   112    10     3   am
   113    17    18    1
   114    18    21    1
   115   106   105    1
   116    21    22    1
   117   137   138    1
   118   138   139    1
   119     3     4    2
   120     3     2    1
   121     6     5    1
   122     5     2    1
   123     1     2    1
   124   108   105    1
   125   108   109    1
   126    22    23    1
   127   105   104    1
   128   114   116   ar
   129   114   111   ar
   130   109   111   ar
   131   109   110   ar
   132    23    24    1
   133   116   117   ar
   134   111   113   ar
   135   110   112   ar
   136    24    25    2
   137   117   115   ar
   138   113   112   ar
   139   113   115   ar
   140    25    26    1
   141    25    27    1
   142    50    51    1
   143    50    49    1
   144    52    51    1
   145    48    49    1
   146    48    45    1
   147    59    58   ar
   148    44    45    1
   149    60    58   ar
   150    45    46    1
   151    58    57    1
   152    53    46   am
   153    53    54    1
   154    46    47    2
   155    57    54    1
   156    54    55    1
   157    55    56    2
