@<TRIPOS>MOLECULE
tmp/1q51H00.pdb
 167 157 0 0 0
SMALL
GASTEIGER

@<TRIPOS>ATOM
      1  N          8.0390  -35.0790   88.8870 N.3    39  GLU39      -0.1231
      2  CA         9.2630  -35.8250   89.2320 C.3    39  GLU39       0.1699
      3  C         10.5240  -35.2600   88.6090 C.2    39  GLU39       0.2592
      4  O         11.6350  -35.4140   89.1640 O.2    39  GLU39      -0.2718
      5  CB         9.1450  -37.2970   88.8150 C.3    39  GLU39       0.0402
      6  CG         7.7150  -37.8050   88.6090 C.3    39  GLU39       0.1161
      7  CD         7.1330  -37.4140   87.2570 C.2    39  GLU39       0.3649
      8  OE1        7.8450  -37.5400   86.2300 O.co2  39  GLU39      -0.2457
      9  OE2        5.9370  -37.0200   87.2260 O.co2  39  GLU39      -0.2457
     10  N         10.3810  -34.6310   87.4440 N.am   40  VAL40      -0.1966
     11  CA        11.5530  -34.0650   86.7740 C.3    40  VAL40       0.1727
     12  C         11.5230  -32.5230   86.7310 C.2    40  VAL40       0.2616
     13  O         12.0310  -31.9010   85.7910 O.2    40  VAL40      -0.2715
     14  CB        11.8140  -34.7280   85.3870 C.3    40  VAL40       0.0290
     15  CG1       12.6120  -36.0440   85.5740 C.3    40  VAL40       0.0023
     16  CG2       10.5170  -34.9970   84.6540 C.3    40  VAL40       0.0023
     17  N         10.9320  -31.9280   87.7740 N.am   41  ARG41      -0.1977
     18  CA        10.7070  -30.4790   87.8680 C.3    41  ARG41       0.1597
     19  C          9.9380  -29.9340   86.6490 C.2    41  ARG41       0.2287
     20  O         10.2380  -28.8330   86.1460 O.2    41  ARG41      -0.2864
     21  CB        12.0180  -29.7190   88.0640 C.3    41  ARG41       0.0334
     22  CG        12.6920  -29.9010   89.4290 C.3    41  ARG41       0.0492
     23  CD        11.9690  -29.1940   90.5900 C.3    41  ARG41       0.2205
     24  NE        11.6640  -30.1510   91.6460 N.pl3  41  ARG41      -0.0865
     25  CZ        12.4610  -30.3700   92.6800 C.cat  41  ARG41       0.5346
     26  NH1       13.5860  -29.6600   92.8230 N.pl3  41  ARG41       0.1354
     27  NH2       12.1240  -31.2690   93.5820 N.pl3  41  ARG41       0.1354
     28  N         10.0430  -30.6150   83.5480 N.3    43  ALA43      -0.1231
     29  CA        10.7890  -30.5200   82.2880 C.3    43  ALA43       0.1694
     30  C          9.9640  -31.0480   81.1160 C.2    43  ALA43       0.2592
     31  O          9.2360  -32.0310   81.2580 O.2    43  ALA43      -0.2718
     32  CB        12.0470  -31.3310   82.3830 C.3    43  ALA43       0.0304
     33  N         10.0850  -30.4060   79.9560 N.am   44  PHE44      -0.1976
     34  CA         9.3960  -30.8940   78.7800 C.3    44  PHE44       0.1639
     35  C         10.3360  -31.6940   77.8790 C.2    44  PHE44       0.2290
     36  O         11.4620  -31.2790   77.5940 O.2    44  PHE44      -0.2864
     37  CB         8.6160  -29.8000   78.0170 C.3    44  PHE44       0.0560
     38  CG         9.4220  -28.5690   77.6470 C.ar   44  PHE44      -0.0200
     39  CD1       10.3200  -28.5820   76.5680 C.ar   44  PHE44      -0.0042
     40  CD2        9.2310  -27.3690   78.3390 C.ar   44  PHE44      -0.0042
     41  CE1       11.0190  -27.4510   76.2070 C.ar   44  PHE44      -0.0003
     42  CE2        9.9400  -26.2340   77.9790 C.ar   44  PHE44      -0.0003
     43  CZ        10.8440  -26.2850   76.9170 C.ar   44  PHE44      -0.0000
     44  N          8.9210  -37.2840   94.6680 N.3    78  LYS78      -0.1231
     45  CA        10.2470  -37.7150   95.0850 C.3    78  LYS78       0.1693
     46  C         10.8290  -36.8530   96.2130 C.2    78  LYS78       0.2592
     47  O         11.3980  -37.3900   97.1730 O.2    78  LYS78      -0.2718
     48  CB        11.1880  -37.7220   93.8840 C.3    78  LYS78       0.0285
     49  CG        12.6160  -38.0910   94.2130 C.3    78  LYS78       0.0035
     50  CD        13.3590  -38.4570   92.9530 C.3    78  LYS78       0.0206
     51  CE        14.6370  -39.1920   93.2860 C.3    78  LYS78       0.1093
     52  NZ        15.2950  -39.6240   92.0180 N.3    78  LYS78      -0.1314
     53  N         10.7160  -35.5290   96.1140 N.am   79  ASP79      -0.1974
     54  CA        11.3500  -34.6870   97.1160 C.3    79  ASP79       0.1709
     55  C         10.5400  -33.4780   97.6030 C.2    79  ASP79       0.2293
     56  O         11.0540  -32.6280   98.3270 O.2    79  ASP79      -0.2864
     57  CB        12.7650  -34.3180   96.6650 C.3    79  ASP79       0.1436
     58  CG        12.7780  -33.3060   95.5480 C.2    79  ASP79       0.3671
     59  OD1       11.6870  -32.9270   95.0280 O.co2  79  ASP79      -0.2456
     60  OD2       13.8580  -32.8260   95.1430 O.co2  79  ASP79      -0.2456
     61  N         10.9800  -26.6010   84.2000 N.3    86  SER86      -0.1217
     62  CA        12.4210  -26.4020   84.2680 C.3    86  SER86       0.1889
     63  C         13.0680  -26.4240   82.9000 C.2    86  SER86       0.2288
     64  O         14.2900  -26.5350   82.7980 O.2    86  SER86      -0.2866
     65  CB        13.0790  -27.4640   85.1550 C.3    86  SER86       0.2089
     66  OG        13.2510  -28.6810   84.4220 O.3    86  SER86      -0.2183
     67  N         13.7630  -27.7220   78.8230 N.3    88  GLY88      -0.1210
     68  CA        13.8780  -28.9300   78.0220 C.3    88  GLY88       0.1956
     69  C         14.4220  -30.0900   78.8320 C.2    88  GLY88       0.2612
     70  O         15.3580  -29.9230   79.6230 O.2    88  GLY88      -0.2717
     71  N         13.8150  -31.2560   78.6650 N.am   89  ASP89      -0.1959
     72  CA        14.3020  -32.4660   79.3070 C.3    89  ASP89       0.1840
     73  C         15.7190  -32.8100   78.8120 C.2    89  ASP89       0.2621
     74  O         15.9410  -33.0160   77.6180 O.2    89  ASP89      -0.2715
     75  CB        13.3350  -33.6280   79.0590 C.3    89  ASP89       0.1450
     76  CG        13.5920  -34.8050   79.9760 C.2    89  ASP89       0.3671
     77  OD1       14.7840  -35.1620   80.1510 O.co2  89  ASP89      -0.2456
     78  OD2       12.6770  -35.4270   80.5700 O.co2  89  ASP89      -0.2456
     79  N         16.6610  -32.8780   79.7490 N.am   90  GLN90      -0.1977
     80  CA        18.0680  -33.0610   79.4200 C.3    90  GLN90       0.1601
     81  C         18.6020  -34.4670   79.7270 C.2    90  GLN90       0.2287
     82  O         18.2650  -35.4460   79.0510 O.2    90  GLN90      -0.2864
     83  CB        18.8930  -32.0280   80.1650 C.3    90  GLN90       0.0394
     84  CG        19.8760  -31.2970   79.2310 C.3    90  GLN90       0.0908
     85  CD        19.9260  -29.8220   79.5090 C.2    90  GLN90       0.2608
     86  OE1       20.8890  -29.3340   80.1190 O.2    90  GLN90      -0.2717
     87  NE2       18.8810  -29.0990   79.0870 N.am   90  GLN90      -0.0878
     88  N         12.9190  -26.9010   69.1550 N.3    91  LEU91      -0.1245
     89  CA        12.2250  -25.9970   68.2140 C.3    91  LEU91       0.1561
     90  C         10.6950  -26.0920   68.1520 C.2    91  LEU91       0.2260
     91  O         10.0360  -25.1430   67.7260 O.2    91  LEU91      -0.2867
     92  CB        12.7560  -26.1630   66.7960 C.3    91  LEU91       0.0270
     93  CG        13.4280  -24.8430   66.4410 C.3    91  LEU91       0.0019
     94  CD1       14.9340  -24.9740   66.6250 C.3    91  LEU91       0.0001
     95  CD2       13.0670  -24.4040   65.0400 C.3    91  LEU91       0.0001
     96  N          9.0190  -26.0430   70.7260 N.3    93  ILE93      -0.1245
     97  CA         8.6550  -25.0800   71.7800 C.3    93  ILE93       0.1561
     98  C          8.5250  -23.6220   71.2640 C.2    93  ILE93       0.2260
     99  O          7.7310  -22.8580   71.7780 O.2    93  ILE93      -0.2867
    100  CB         9.5890  -25.2000   73.0600 C.3    93  ILE93       0.0252
    101  CG1        8.9420  -24.5770   74.3000 C.3    93  ILE93       0.0019
    102  CG2       10.9130  -24.5420   72.8390 C.3    93  ILE93       0.0019
    103  CD1        7.7840  -25.4440   74.9130 C.3    93  ILE93       0.0001
    104  N          9.7470  -23.5730   90.5120 N.3   114  TRP114     -0.1241
    105  CA        10.8260  -23.2450   89.5820 C.3   114  TRP114      0.1605
    106  C         10.3080  -22.9430   88.1800 C.2   114  TRP114      0.2264
    107  O          9.3960  -23.6210   87.6640 O.2   114  TRP114     -0.2867
    108  CB        11.8240  -24.3830   89.4990 C.3   114  TRP114      0.0550
    109  CG        12.6330  -24.4910   90.7340 C.ar  114  TRP114      0.0003
    110  CD1       12.4160  -25.3380   91.8030 C.ar  114  TRP114      0.0946
    111  CD2       13.7980  -23.7320   91.0510 C.ar  114  TRP114      0.0152
    112  NE1       13.3790  -25.1340   92.7620 N.ar  114  TRP114     -0.2442
    113  CE2       14.2530  -24.1680   92.3180 C.ar  114  TRP114      0.0810
    114  CE3       14.5150  -22.7300   90.3880 C.ar  114  TRP114      0.0012
    115  CZ2       15.3720  -23.6120   92.9400 C.ar  114  TRP114      0.0191
    116  CZ3       15.6200  -22.1890   90.9930 C.ar  114  TRP114      0.0001
    117  CH2       16.0450  -22.6250   92.2590 C.ar  114  TRP114      0.0015
    118  N         12.5980  -22.3010   84.9690 N.3   116  ALA116     -0.1231
    119  CA        14.0000  -22.3160   84.5400 C.3   116  ALA116      0.1694
    120  C         14.1340  -22.5840   83.0400 C.2   116  ALA116      0.2593
    121  O         13.2720  -23.2490   82.4450 O.2   116  ALA116     -0.2718
    122  CB        14.7850  -23.3950   85.3570 C.3   116  ALA116      0.0304
    123  N         15.2330  -22.1120   82.4410 N.am  117  GLY117     -0.1942
    124  CA        15.4400  -22.2220   81.0010 C.3   117  GLY117      0.2014
    125  C         14.1680  -21.9420   80.2120 C.2   117  GLY117      0.2639
    126  O         13.5400  -20.9120   80.4120 O.2   117  GLY117     -0.2714
    127  N         13.8050  -22.8560   79.3150 N.am  118  GLY118     -0.1954
    128  CA        12.6360  -22.7580   78.4670 C.3   118  GLY118      0.1869
    129  C         11.3400  -22.5580   79.2440 C.2   118  GLY118      0.2309
    130  O         10.4050  -21.9690   78.7260 O.2   118  GLY118     -0.2863
    131  N         14.8980  -18.5700   87.1560 N.3   139  LYS139     -0.1245
    132  CA        16.3190  -18.7140   86.9140 C.3   139  LYS139      0.1561
    133  C         16.5460  -18.9630   85.4380 C.2   139  LYS139      0.2260
    134  O         16.0500  -19.9470   84.8740 O.2   139  LYS139     -0.2867
    135  CB        16.8930  -19.8530   87.7610 C.3   139  LYS139      0.0271
    136  CG        18.3730  -20.0600   87.6180 C.3   139  LYS139      0.0035
    137  CD        18.9110  -21.0630   88.6650 C.3   139  LYS139      0.0206
    138  CE        20.4460  -20.9290   88.8270 C.3   139  LYS139      0.1093
    139  NZ        20.8700  -19.7400   89.6570 N.3   139  LYS139     -0.1314
    140  N         18.8800  -20.3000   83.1320 N.3   141  THR141     -0.1203
    141  CA        20.0660  -21.1330   83.1620 C.3   141  THR141      0.1994
    142  C         20.6830  -21.3790   81.7910 C.2   141  THR141      0.2617
    143  O         21.7320  -22.0020   81.7010 O.2   141  THR141     -0.2717
    144  CB        19.6970  -22.4970   83.7110 C.3   141  THR141      0.1784
    145  OG1       18.3570  -22.7930   83.3000 O.3   141  THR141     -0.2211
    146  CG2       19.6820  -22.4960   85.2400 C.3   141  THR141      0.0376
    147  N         20.0320  -20.9240   80.7270 N.am  142  ASP142     -0.1973
    148  CA        20.4900  -21.2460   79.3780 C.3   142  ASP142      0.1709
    149  C         22.0000  -21.2270   79.1620 C.2   142  ASP142      0.2293
    150  O         22.5690  -22.1770   78.6610 O.2   142  ASP142     -0.2864
    151  CB        19.8170  -20.3300   78.3560 C.3   142  ASP142      0.1436
    152  CG        18.4370  -20.8150   77.9740 C.2   142  ASP142      0.3671
    153  OD1       18.1390  -22.0170   78.2220 O.co2 142  ASP142     -0.2456
    154  OD2       17.5990  -20.0540   77.4440 O.co2 142  ASP142     -0.2456
    155  N         24.4590  -24.0270   80.2590 N.3   145  VAL145     -0.1245
    156  CA        24.5570  -25.2300   79.4130 C.3   145  VAL145      0.1561
    157  C         24.9680  -24.9740   77.9530 C.2   145  VAL145      0.2260
    158  O         24.9850  -25.9060   77.1430 O.2   145  VAL145     -0.2867
    159  CB        23.2390  -26.0940   79.4870 C.3   145  VAL145      0.0252
    160  CG1       22.9040  -26.4410   80.9400 C.3   145  VAL145      0.0019
    161  CG2       22.0410  -25.3820   78.8210 C.3   145  VAL145      0.0019
    162  N         23.3950  -23.0220   75.8150 N.3   147  SER147     -0.1217
    163  CA        22.2060  -22.6730   75.0280 C.3   147  SER147      0.1889
    164  C         21.7570  -21.2020   75.2730 C.2   147  SER147      0.2288
    165  O         22.3980  -20.4540   76.0440 O.2   147  SER147     -0.2866
    166  CB        21.0880  -23.6780   75.3210 C.3   147  SER147      0.2089
    167  OG        19.8470  -23.2720   74.7590 O.3   147  SER147     -0.2183
@<TRIPOS>BOND
     1    95    93    1
     2    93    94    1
     3    93    92    1
     4    92    89    1
     5    91    90    2
     6    90    89    1
     7    89    88    1
     8    96    97    1
     9    98    99    2
    10    98    97    1
    11    97   100    1
    12   102   100    1
    13   100   101    1
    14   101   103    1
    15   167   166    1
    16   163   164    1
    17   163   166    1
    18   163   162    1
    19   164   165    2
    20    41    39   ar
    21    41    43   ar
    22    39    38   ar
    23    43    42   ar
    24   158   157    2
    25   154   152   ar
    26    36    35    2
    27    74    73    2
    28    38    37    1
    29    38    40   ar
    30    35    34    1
    31   157   156    1
    32   152   153   ar
    33   152   151    1
    34    42    40   ar
    35    37    34    1
    36    68    67    1
    37    68    69    1
    38   151   148    1
    39   128   129    1
    40   128   127    1
    41   150   149    2
    42    71    69   am
    43    71    72    1
    44   130   129    2
    45    34    33    1
    46    73    72    1
    47    73    79   am
    48   161   159    1
    49    69    70    2
    50    82    81    2
    51    75    72    1
    52    75    76    1
    53    87    85   am
    54   149   148    1
    55    84    85    1
    56    84    83    1
    57   127   125   am
    58   148   147    1
    59   156   159    1
    60   156   155    1
    61    80    81    1
    62    80    79    1
    63    80    83    1
    64   159   160    1
    65    85    86    2
    66    33    30   am
    67    76    77   ar
    68    76    78   ar
    69   125   126    2
    70   125   124    1
    71   147   142   am
    72   124   123    1
    73    30    31    2
    74    30    29    1
    75   143   142    2
    76   142   141    1
    77    29    32    1
    78    29    28    1
    79   123   120   am
    80   121   120    2
    81    64    63    2
    82    63    62    1
    83   120   119    1
    84   140   141    1
    85   141   144    1
    86   145   144    1
    87   144   146    1
    88    61    62    1
    89    62    65    1
    90    66    65    1
    91   119   118    1
    92   119   122    1
    93    16    14    1
    94   134   133    2
    95    14    15    1
    96    14    11    1
    97   133   132    1
    98    13    12    2
    99    20    19    2
   100     8     7   ar
   101    19    18    1
   102    12    11    1
   103    12    17   am
   104    11    10    1
   105   132   131    1
   106   132   135    1
   107     9     7   ar
   108     7     6    1
   109    10     3   am
   110   136   135    1
   111   136   137    1
   112   107   106    2
   113    17    18    1
   114    18    21    1
   115    21    22    1
   116   106   105    1
   117     6     5    1
   118     3     4    2
   119     3     2    1
   120   137   138    1
   121     5     2    1
   122   138   139    1
   123     1     2    1
   124    22    23    1
   125   108   105    1
   126   108   109    1
   127   105   104    1
   128   114   116   ar
   129   114   111   ar
   130    23    24    1
   131   109   111   ar
   132   109   110   ar
   133   116   117   ar
   134   111   113   ar
   135    24    25    2
   136   110   112   ar
   137    52    51    1
   138   117   115   ar
   139   113   112   ar
   140   113   115   ar
   141    25    26    1
   142    25    27    1
   143    50    51    1
   144    50    49    1
   145    48    49    1
   146    48    45    1
   147    44    45    1
   148    59    58   ar
   149    45    46    1
   150    60    58   ar
   151    58    57    1
   152    53    46   am
   153    53    54    1
   154    46    47    2
   155    57    54    1
   156    54    55    1
   157    55    56    2
