@<TRIPOS>MOLECULE
tmp/1q5dA01.pdb
 212 203 0 0 0
SMALL
GASTEIGER

@<TRIPOS>ATOM
      1  N         -2.8340   48.6940   16.6760 N.3    56  ARG56      -0.1245
      2  CA        -3.0550   48.8130   15.2500 C.3    56  ARG56       0.1563
      3  C         -4.2890   49.6690   14.9760 C.2    56  ARG56       0.2260
      4  O         -4.5010   50.1130   13.8460 O.2    56  ARG56      -0.2867
      5  CB        -3.1850   47.4290   14.6020 C.3    56  ARG56       0.0307
      6  CG        -1.8480   46.7320   14.3530 C.3    56  ARG56       0.0489
      7  CD        -1.0750   46.3800   15.6180 C.3    56  ARG56       0.2205
      8  NE         0.0980   45.5420   15.3540 N.pl3  56  ARG56      -0.0865
      9  CZ         1.3080   45.7710   15.8410 C.cat  56  ARG56       0.5346
     10  NH1        1.5310   46.8250   16.6140 N.pl3  56  ARG56       0.1354
     11  NH2        2.3070   44.9490   15.5480 N.pl3  56  ARG56       0.1354
     12  N         -7.7290   46.5430    8.5240 N.3    65  TYR65      -0.1241
     13  CA        -6.9910   45.5730    9.3510 C.3    65  TYR65       0.1605
     14  C         -7.8690   44.7790   10.3160 C.2    65  TYR65       0.2264
     15  O         -7.7550   43.5590   10.3960 O.2    65  TYR65      -0.2867
     16  CB        -5.8210   46.2140   10.1170 C.3    65  TYR65       0.0534
     17  CG        -4.9820   45.1760   10.8440 C.ar   65  TYR65      -0.0201
     18  CD1       -4.3210   44.1840   10.1400 C.ar   65  TYR65      -0.0009
     19  CD2       -4.8800   45.1720   12.2280 C.ar   65  TYR65      -0.0009
     20  CE1       -3.5600   43.2170   10.7950 C.ar   65  TYR65       0.0417
     21  CE2       -4.1120   44.2010   12.9000 C.ar   65  TYR65       0.0417
     22  CZ        -3.4560   43.2340   12.1730 C.ar   65  TYR65       0.1957
     23  OH        -2.7000   42.2560   12.8120 O.3    65  TYR65      -0.2866
     24  N         -7.9970   38.6680   19.4160 N.3    75  MET75      -0.1230
     25  CA        -6.5670   38.6980   19.7140 C.3    75  MET75       0.1702
     26  C         -5.9330   40.0400   19.3750 C.2    75  MET75       0.2592
     27  O         -5.0050   40.4920   20.0480 O.2    75  MET75      -0.2718
     28  CB        -5.8190   37.5960   18.9800 C.3    75  MET75       0.0401
     29  CG        -4.3910   37.4710   19.4760 C.3    75  MET75       0.0596
     30  SD        -3.3810   36.3150   18.5840 S.3    75  MET75      -0.1393
     31  CE        -4.0610   34.7720   19.1780 C.3    75  MET75       0.0692
     32  N         -6.4380   40.6750   18.3230 N.am   76  LYS76      -0.1980
     33  CA        -5.9080   41.9600   17.8940 C.3    76  LYS76       0.1596
     34  C         -6.2970   43.0590   18.8780 C.2    76  LYS76       0.2287
     35  O         -5.5290   43.9930   19.1260 O.2    76  LYS76      -0.2864
     36  CB        -6.4350   42.3040   16.5030 C.3    76  LYS76       0.0298
     37  CG        -5.8730   41.4220   15.3740 C.3    76  LYS76       0.0038
     38  CD        -6.4550   41.8660   14.0250 C.3    76  LYS76       0.0206
     39  CE        -5.8680   41.0750   12.8680 C.3    76  LYS76       0.1093
     40  NZ        -6.6010   41.3510   11.5740 N.3    76  LYS76      -0.1314
     41  N         -5.3340   41.5690   22.7620 N.3    79  GLY79      -0.1210
     42  CA        -3.9650   41.0950   22.8800 C.3    79  GLY79       0.1956
     43  C         -3.0210   42.2150   23.2800 C.2    79  GLY79       0.2612
     44  O         -3.4190   43.3730   23.3700 O.2    79  GLY79      -0.2717
     45  N         -1.7590   41.8710   23.4980 N.am   80  LEU80      -0.1965
     46  CA        -0.7840   42.8180   24.0130 C.3    80  LEU80       0.1728
     47  C         -0.4830   43.9720   23.0490 C.2    80  LEU80       0.2616
     48  O         -0.1130   45.0530   23.4880 O.2    80  LEU80      -0.2715
     49  CB         0.4960   42.0890   24.4060 C.3    80  LEU80       0.0311
     50  CG         0.3670   41.2160   25.6580 C.3    80  LEU80       0.0022
     51  CD1        1.6200   40.4270   25.8940 C.3    80  LEU80       0.0001
     52  CD2        0.0690   42.0910   26.8850 C.3    80  LEU80       0.0001
     53  N         -0.6510   43.7550   21.7460 N.am   81  PHE81      -0.1974
     54  CA        -0.4290   44.8400   20.7810 C.3    81  PHE81       0.1639
     55  C         -1.6460   45.7630   20.6340 C.2    81  PHE81       0.2290
     56  O         -1.5360   46.8710   20.0900 O.2    81  PHE81      -0.2864
     57  CB        -0.0420   44.2940   19.4000 C.3    81  PHE81       0.0560
     58  CG         1.3470   43.7350   19.3210 C.ar   81  PHE81      -0.0200
     59  CD1        1.7510   43.0280   18.1930 C.ar   81  PHE81      -0.0042
     60  CD2        2.2610   43.9220   20.3550 C.ar   81  PHE81      -0.0042
     61  CE1        3.0280   42.5140   18.0930 C.ar   81  PHE81      -0.0003
     62  CE2        3.5580   43.4020   20.2590 C.ar   81  PHE81      -0.0003
     63  CZ         3.9360   42.6940   19.1390 C.ar   81  PHE81      -0.0000
     64  N          0.9850   33.8930   13.4930 N.3   165  ALA165     -0.1231
     65  CA         1.9690   34.9540   13.2800 C.3   165  ALA165      0.1694
     66  C          1.8840   35.5370   11.8560 C.2   165  ALA165      0.2591
     67  O          1.9320   36.7740   11.6770 O.2   165  ALA165     -0.2718
     68  CB         3.3700   34.4640   13.6110 C.3   165  ALA165      0.0304
     69  N          1.7290   34.6600   10.8610 N.am  166  ARG166     -0.1980
     70  CA         1.5200   35.0770    9.4630 C.3   166  ARG166      0.1597
     71  C          0.1730   35.7610    9.2520 C.2   166  ARG166      0.2287
     72  O          0.0850   36.7780    8.5500 O.2   166  ARG166     -0.2864
     73  CB         1.5750   33.8700    8.5240 C.3   166  ARG166      0.0334
     74  CG         2.9600   33.3200    8.2410 C.3   166  ARG166      0.0492
     75  CD         2.9270   32.0550    7.3910 C.3   166  ARG166      0.2205
     76  NE         4.1620   31.8250    6.6570 N.pl3 166  ARG166     -0.0865
     77  CZ         5.0080   30.8430    6.9330 C.cat 166  ARG166      0.5346
     78  NH1        4.7590   30.0090    7.9420 N.pl3 166  ARG166      0.1354
     79  NH2        6.1120   30.7030    6.2180 N.pl3 166  ARG166      0.1354
     80  N         -1.6720   37.3770   11.2930 N.3   168  LEU168     -0.1231
     81  CA        -1.7040   38.7060   11.8920 C.3   168  LEU168      0.1693
     82  C         -1.1010   39.7500   10.9530 C.2   168  LEU168      0.2592
     83  O         -1.2760   40.9560   11.1510 O.2   168  LEU168     -0.2718
     84  CB        -0.9590   38.7100   13.2390 C.3   168  LEU168      0.0284
     85  CG        -1.7450   38.1040   14.4070 C.3   168  LEU168      0.0019
     86  CD1       -0.8680   38.0500   15.6770 C.3   168  LEU168      0.0001
     87  CD2       -3.0720   38.8110   14.6810 C.3   168  LEU168      0.0001
     88  N         -0.3880   39.2930    9.9350 N.am  169  GLY169     -0.1957
     89  CA         0.1870   40.2120    8.9650 C.3   169  GLY169      0.1869
     90  C         -0.7230   40.5730    7.7970 C.2   169  GLY169      0.2309
     91  O         -0.4040   41.4940    7.0340 O.2   169  GLY169     -0.2863
     92  N         -1.7760   44.1070    7.0490 N.3   172  LEU172     -0.1231
     93  CA        -0.8760   44.9540    7.8300 C.3   172  LEU172      0.1693
     94  C          0.4540   45.0800    7.1130 C.2   172  LEU172      0.2591
     95  O          0.9330   46.1810    6.8960 O.2   172  LEU172     -0.2718
     96  CB        -0.6440   44.3710    9.2290 C.3   172  LEU172      0.0284
     97  CG         0.1470   45.2070   10.2530 C.3   172  LEU172      0.0019
     98  CD1        1.5770   45.4120    9.8150 C.3   172  LEU172      0.0001
     99  CD2       -0.4990   46.5440   10.5410 C.3   172  LEU172      0.0001
    100  N          1.0510   43.9420    6.7640 N.am  173  VAL173     -0.1980
    101  CA         2.3170   43.9190    6.0330 C.3   173  VAL173      0.1595
    102  C          2.1260   43.3240    4.6280 C.2   173  VAL173      0.2287
    103  O          1.2870   42.4450    4.4320 O.2   173  VAL173     -0.2864
    104  CB         3.4320   43.1610    6.8200 C.3   173  VAL173      0.0276
    105  CG1        3.6420   43.7800    8.1840 C.3   173  VAL173      0.0022
    106  CG2        3.1000   41.6960    6.9600 C.3   173  VAL173      0.0022
    107  N         -1.0000   34.6030   22.0540 N.3   235  ALA235     -0.1245
    108  CA         0.1210   35.4360   21.6220 C.3   235  ALA235      0.1562
    109  C          1.4580   34.8390   22.0540 C.2   235  ALA235      0.2260
    110  O          2.4330   34.8430   21.2920 O.2   235  ALA235     -0.2867
    111  CB        -0.0500   36.8680   22.1390 C.3   235  ALA235      0.0290
    112  N          2.1880   32.0440   19.5870 N.3   238  ALA238     -0.1231
    113  CA         2.5100   32.5820   18.2680 C.3   238  ALA238      0.1694
    114  C          3.8320   33.3940   18.2530 C.2   238  ALA238      0.2591
    115  O          4.5680   33.4100   17.2550 O.2   238  ALA238     -0.2718
    116  CB         1.3550   33.4400   17.7750 C.3   238  ALA238      0.0304
    117  N          4.1120   34.0910   19.3440 N.am  239  ALA239     -0.1980
    118  CA         5.3010   34.9280   19.3940 C.3   239  ALA239      0.1597
    119  C          6.5540   34.1110   19.6800 C.2   239  ALA239      0.2287
    120  O          7.6570   34.4920   19.2680 O.2   239  ALA239     -0.2864
    121  CB         5.1390   36.0430   20.4340 C.3   239  ALA239      0.0319
    122  N         10.0890   32.5400   16.1110 N.3   243  THR243     -0.1218
    123  CA        11.2180   33.3560   16.5360 C.3   243  THR243      0.1862
    124  C         12.3180   32.4430   17.0650 C.2   243  THR243      0.2287
    125  O         13.4710   32.5210   16.6410 O.2   243  THR243     -0.2866
    126  CB        10.7700   34.3510   17.6270 C.3   243  THR243      0.1770
    127  OG1       10.1140   33.6380   18.6850 O.3   243  THR243     -0.2211
    128  CG2        9.6730   35.2620   17.1050 C.3   243  THR243      0.0375
    129  N         17.1540   38.1580   12.9130 N.3   285  ILE285     -0.1231
    130  CA        16.2100   37.3030   12.1840 C.3   285  ILE285      0.1692
    131  C         15.0290   38.0310   11.5450 C.2   285  ILE285      0.2591
    132  O         14.2840   37.4260   10.7390 O.2   285  ILE285     -0.2718
    133  CB        15.6250   36.2080   13.1230 C.3   285  ILE285      0.0266
    134  CG1       14.8260   36.8650   14.2570 C.3   285  ILE285      0.0019
    135  CG2       16.7210   35.2350   13.5870 C.3   285  ILE285      0.0020
    136  CD1       13.9520   35.9100   15.1150 C.3   285  ILE285      0.0001
    137  N         14.8140   39.2840   11.9170 N.am  286  LEU286     -0.1980
    138  CA        13.6850   40.0410   11.3810 C.3   286  LEU286      0.1596
    139  C         14.0020   40.5370    9.9730 C.2   286  LEU286      0.2287
    140  O         15.0830   41.0720    9.7320 O.2   286  LEU286     -0.2864
    141  CB        13.3330   41.2350   12.2630 C.3   286  LEU286      0.0297
    142  CG        12.7620   40.8770   13.6410 C.3   286  LEU286      0.0022
    143  CD1       12.4380   42.1150   14.4900 C.3   286  LEU286      0.0001
    144  CD2       11.5050   40.0200   13.4140 C.3   286  LEU286      0.0001
    145  N         11.4050   44.5550   10.6280 N.3   289  GLY289     -0.1210
    146  CA        11.4820   44.9090   12.0340 C.3   289  GLY289      0.1956
    147  C         10.1410   44.9010   12.7210 C.2   289  GLY289      0.2613
    148  O          9.3370   43.9840   12.5410 O.2   289  GLY289     -0.2717
    149  N          9.8820   45.9200   13.5220 N.am  290  THR290     -0.1938
    150  CA         8.6050   46.0130   14.1790 C.3   290  THR290      0.2028
    151  C          7.9780   47.3550   13.8570 C.2   290  THR290      0.2642
    152  O          8.6350   48.2120   13.2650 O.2   290  THR290     -0.2714
    153  CB         8.7110   45.7490   15.6920 C.3   290  THR290      0.1808
    154  OG1        7.3940   45.7330   16.2450 O.3   290  THR290     -0.2208
    155  CG2        9.4050   46.9140   16.4130 C.3   290  THR290      0.0379
    156  N          6.7080   47.5190   14.2050 N.am  291  VAL291     -0.1977
    157  CA         5.9690   48.7150   13.8040 C.3   291  VAL291      0.1596
    158  C          5.4510   49.5420   14.9710 C.2   291  VAL291      0.2287
    159  O          5.2080   49.0260   16.0730 O.2   291  VAL291     -0.2864
    160  CB         4.7590   48.3780   12.8940 C.3   291  VAL291      0.0276
    161  CG1        5.2380   47.7930   11.5930 C.3   291  VAL291      0.0022
    162  CG2        3.8180   47.4150   13.5850 C.3   291  VAL291      0.0022
    163  N          7.9860   51.7000   10.4800 N.3   312  PHE312     -0.1241
    164  CA         8.7960   50.5070   10.6590 C.3   312  PHE312      0.1605
    165  C         10.1630   50.8440   11.2430 C.2   312  PHE312      0.2264
    166  O         10.8640   51.7280   10.7510 O.2   312  PHE312     -0.2867
    167  CB         9.0010   49.7990    9.3230 C.3   312  PHE312      0.0534
    168  CG         8.1790   48.5490    9.1550 C.ar  312  PHE312     -0.0203
    169  CD1        7.0880   48.5340    8.2850 C.ar  312  PHE312     -0.0042
    170  CD2        8.5150   47.3760    9.8280 C.ar  312  PHE312     -0.0042
    171  CE1        6.3350   47.3620    8.1060 C.ar  312  PHE312     -0.0003
    172  CE2        7.7680   46.2080    9.6530 C.ar  312  PHE312     -0.0003
    173  CZ         6.6760   46.2060    8.7860 C.ar  312  PHE312     -0.0000
    174  N         10.2440   42.0280   25.1000 N.3   350  CYS350     -0.1235
    175  CA         9.8260   40.6330   24.9630 C.3   350  CYS350      0.1677
    176  C          9.8480   39.8870   26.2940 C.2   350  CYS350      0.2270
    177  O         10.8830   39.8350   26.9630 O.2   350  CYS350     -0.2867
    178  CB        10.7370   39.9350   23.9660 C.3   350  CYS350      0.0956
    179  SG        10.5210   38.1510   23.8870 S.3   350  CYS350     -0.0801
    180  N          8.8360   34.6450    4.3050 N.3   385  HIS385     -0.1227
    181  CA         7.9790   34.9720    5.4500 C.3   385  HIS385      0.1737
    182  C          7.9000   36.4970    5.6110 C.2   385  HIS385      0.2438
    183  O          8.9190   37.1850    5.5200 O.2   385  HIS385     -0.2733
    184  CB         8.5490   34.3210    6.7260 C.3   385  HIS385      0.0758
    185  CG         7.6320   34.3820    7.9040 C.ar  385  HIS385      0.0818
    186  ND1        7.2880   35.5660    8.5140 N.ar  385  HIS385     -0.2268
    187  CD2        6.9910   33.4040    8.5900 C.ar  385  HIS385      0.1154
    188  CE1        6.4760   35.3190    9.5260 C.ar  385  HIS385      0.1986
    189  NE2        6.2720   34.0160    9.5870 N.ar  385  HIS385     -0.2212
    190  N          6.7030   37.0310    5.8250 N.am  386  PRO386     -0.2718
    191  CA         6.5180   38.4860    5.8890 C.3   386  PRO386      0.1535
    192  C          7.2610   39.1590    7.0380 C.2   386  PRO386      0.2598
    193  O          7.5390   40.3640    6.9520 O.2   386  PRO386     -0.2715
    194  CB         5.0080   38.6470    6.0920 C.3   386  PRO386      0.0310
    195  CG         4.5440   37.3400    6.6230 C.3   386  PRO386      0.0237
    196  CD         5.4300   36.3040    5.9810 C.3   386  PRO386      0.0939
    197  N          7.5800   38.4050    8.0890 N.am  387  ALA387     -0.1964
    198  CA         8.2500   38.9970    9.2520 C.3   387  ALA387      0.1728
    199  C          9.6980   38.5520    9.4500 C.2   387  ALA387      0.2616
    200  O         10.4910   39.2630   10.0610 O.2   387  ALA387     -0.2715
    201  CB         7.4330   38.7150   10.5380 C.3   387  ALA387      0.0334
    202  N         10.0430   37.3650    8.9710 N.am  388  PHE388     -0.1974
    203  CA        11.3310   36.7900    9.2830 C.3   388  PHE388      0.1639
    204  C         12.1520   36.5230    8.0470 C.2   388  PHE388      0.2290
    205  O         11.6120   36.2060    6.9750 O.2   388  PHE388     -0.2864
    206  CB        11.1510   35.4500   10.0140 C.3   388  PHE388      0.0560
    207  CG        10.4270   35.5650   11.3220 C.ar  388  PHE388     -0.0200
    208  CD1        9.2200   34.9050   11.5210 C.ar  388  PHE388     -0.0042
    209  CD2       10.9760   36.2950   12.3670 C.ar  388  PHE388     -0.0042
    210  CE1        8.5580   34.9980   12.7330 C.ar  388  PHE388     -0.0003
    211  CE2       10.3290   36.3910   13.5870 C.ar  388  PHE388     -0.0003
    212  CZ         9.1110   35.7460   13.7730 C.ar  388  PHE388     -0.0000
@<TRIPOS>BOND
     1   180   181    1
     2   103   102    2
     3   102   101    1
     4   181   182    1
     5   181   184    1
     6   183   182    2
     7   182   190   am
     8   190   191    1
     9   190   196    1
    10   191   194    1
    11   191   192    1
    12   196   195    1
    13   101   100    1
    14   101   104    1
    15   194   195    1
    16    79    77    1
    17    76    77    2
    18    76    75    1
    19   184   185    1
    20   100    94   am
    21   104   106    1
    22   104   105    1
    23    95    94    2
    24    77    78    1
    25   193   192    2
    26   205   204    2
    27    91    90    2
    28   192   197   am
    29    92    93    1
    30    94    93    1
    31    75    74    1
    32    90    89    1
    33    93    96    1
    34   185   186   ar
    35   185   187   ar
    36   204   203    1
    37   197   198    1
    38   171   169   ar
    39   171   173   ar
    40    74    73    1
    41   169   168   ar
    42   186   188   ar
    43    73    70    1
    44    12    13    1
    45    72    71    2
    46   187   189   ar
    47   173   172   ar
    48    89    88    1
    49   202   203    1
    50   202   199   am
    51   168   167    1
    52   168   170   ar
    53    96    97    1
    54   198   199    1
    55   198   201    1
    56    71    70    1
    57   203   206    1
    58   167   164    1
    59    13    16    1
    60    13    14    1
    61   199   200    2
    62    70    69    1
    63   188   189   ar
    64   172   170   ar
    65   140   139    2
    66    98    97    1
    67    88    82   am
    68   139   138    1
    69   206   207    1
    70    16    17    1
    71    18    20   ar
    72    18    17   ar
    73    97    99    1
    74    14    15    2
    75   163   164    1
    76   145   146    1
    77   164   165    1
    78   132   131    2
    79   166   165    2
    80    20    22   ar
    81    17    19   ar
    82    69    66   am
    83    82    83    2
    84    82    81    1
    85    80    81    1
    86   207   208   ar
    87   207   209   ar
    88   138   137    1
    89   138   141    1
    90   208   210   ar
    91   131   137   am
    92   131   130    1
    93    40    39    1
    94   161   160    1
    95    67    66    2
    96    66    65    1
    97    81    84    1
    98   146   147    1
    99    22    23    1
   100    22    21   ar
   101   130   129    1
   102   130   133    1
   103    19    21   ar
   104   141   142    1
   105   209   211   ar
   106   148   147    2
   107   147   149   am
   108   210   212   ar
   109    39    38    1
   110   160   162    1
   111   160   157    1
   112   133   135    1
   113   133   134    1
   114    84    85    1
   115   152   151    2
   116    65    64    1
   117    65    68    1
   118   144   142    1
   119   149   150    1
   120   211   212   ar
   121   142   143    1
   122   157   156    1
   123   157   158    1
   124     4     3    2
   125   151   150    1
   126   151   156   am
   127    38    37    1
   128   150   153    1
   129   134   136    1
   130     6     5    1
   131     6     7    1
   132    85    87    1
   133    85    86    1
   134     5     2    1
   135   158   159    2
   136     3     2    1
   137     2     1    1
   138     8     7    1
   139     8     9    2
   140    37    36    1
   141    11     9    1
   142   153   154    1
   143   153   155    1
   144     9    10    1
   145   122   123    1
   146    36    33    1
   147   123   124    1
   148   123   126    1
   149   125   124    2
   150   128   126    1
   151   115   114    2
   152   126   127    1
   153   116   113    1
   154    33    32    1
   155    33    34    1
   156    61    59   ar
   157    61    63   ar
   158    59    58   ar
   159   114   113    1
   160   114   117   am
   161   113   112    1
   162    32    26   am
   163    30    31    1
   164    30    29    1
   165    34    35    2
   166    28    29    1
   167    28    25    1
   168    63    62   ar
   169   120   119    2
   170    58    57    1
   171    58    60   ar
   172   117   118    1
   173    26    25    1
   174    26    27    2
   175   118   119    1
   176   118   121    1
   177    57    54    1
   178    24    25    1
   179    56    55    2
   180    62    60   ar
   181    55    54    1
   182    54    53    1
   183   110   109    2
   184   108   109    1
   185   108   107    1
   186   108   111    1
   187    53    47   am
   188    41    42    1
   189    42    43    1
   190    47    48    2
   191    47    46    1
   192    43    44    2
   193    43    45   am
   194    45    46    1
   195   179   178    1
   196   178   175    1
   197    46    49    1
   198    49    50    1
   199   175   174    1
   200   175   176    1
   201    50    51    1
   202    50    52    1
   203   176   177    2
