@<TRIPOS>MOLECULE
tmp/1q5hC02.pdb
 88 85 0 0 0
SMALL
GASTEIGER

@<TRIPOS>ATOM
      1  N         13.2880   40.1320   23.4760 N.3    65  VAL65      -0.1245
      2  CA        13.9280   41.2650   22.8070 C.3    65  VAL65       0.1561
      3  C         13.9070   40.9680   21.3130 C.2    65  VAL65       0.2260
      4  O         14.4820   39.9770   20.8690 O.2    65  VAL65      -0.2867
      5  CB        15.3830   41.4800   23.2960 C.3    65  VAL65       0.0252
      6  CG1       15.9660   42.7700   22.7090 C.3    65  VAL65       0.0019
      7  CG2       15.4270   41.5250   24.8000 C.3    65  VAL65       0.0019
      8  N         20.5900   39.2810   18.7080 N.3    80  GLY80      -0.1210
      9  CA        20.8920   37.9410   19.1920 C.3    80  GLY80       0.1956
     10  C         20.2840   37.6300   20.5510 C.2    80  GLY80       0.2612
     11  O         19.6580   38.4930   21.1700 O.2    80  GLY80      -0.2717
     12  N         20.4740   36.3960   21.0210 N.am   81  ALA81      -0.1965
     13  CA        19.9240   35.9580   22.3070 C.3    81  ALA81       0.1728
     14  C         18.4390   36.3410   22.3870 C.2    81  ALA81       0.2617
     15  O         17.6420   35.8900   21.5590 O.2    81  ALA81      -0.2715
     16  CB        20.7230   36.5520   23.4800 C.3    81  ALA81       0.0334
     17  N         18.0780   37.1710   23.3640 N.am   82  GLY82      -0.1940
     18  CA        16.7600   37.7890   23.3910 C.3    82  GLY82       0.2014
     19  C         15.7230   37.2520   24.3660 C.2    82  GLY82       0.2639
     20  O         14.6090   37.7770   24.4070 O.2    82  GLY82      -0.2714
     21  N         16.0710   36.2190   25.1360 N.am   83  VAL83      -0.1963
     22  CA        15.1350   35.5830   26.0680 C.3    83  VAL83       0.1727
     23  C         15.2910   36.1200   27.4980 C.2    83  VAL83       0.2616
     24  O         16.2580   35.7880   28.1920 O.2    83  VAL83      -0.2715
     25  CB        15.2980   34.0310   26.0570 C.3    83  VAL83       0.0290
     26  CG1       14.3690   33.3620   27.0870 C.3    83  VAL83       0.0023
     27  CG2       15.0470   33.4780   24.6590 C.3    83  VAL83       0.0023
     28  N         14.3410   36.9520   27.9290 N.am   84  ILE84      -0.1963
     29  CA        14.3420   37.4810   29.2960 C.3    84  ILE84       0.1727
     30  C         13.3500   36.7070   30.1470 C.2    84  ILE84       0.2616
     31  O         12.1360   36.8270   29.9590 O.2    84  ILE84      -0.2715
     32  CB        13.9910   39.0020   29.3560 C.3    84  ILE84       0.0290
     33  CG1       14.7530   39.8230   28.2950 C.3    84  ILE84       0.0022
     34  CG2       14.1090   39.5220   30.8180 C.3    84  ILE84       0.0023
     35  CD1       16.2630   39.8450   28.4230 C.3    84  ILE84       0.0001
     36  N         13.8710   35.9240   31.0880 N.am   85  ASP85      -0.1971
     37  CA        13.0350   35.0780   31.9330 C.3    85  ASP85       0.1709
     38  C         12.1680   35.9060   32.8630 C.2    85  ASP85       0.2293
     39  O         12.5560   36.9940   33.2910 O.2    85  ASP85      -0.2864
     40  CB        13.9040   34.1220   32.7450 C.3    85  ASP85       0.1436
     41  CG        14.6920   33.1880   31.8600 C.2    85  ASP85       0.3671
     42  OD1       15.9270   33.3240   31.7900 O.co2  85  ASP85      -0.2456
     43  OD2       14.1470   32.3200   31.1570 O.co2  85  ASP85      -0.2456
     44  N         13.9440   37.0820   35.9900 N.3    88  TYR88      -0.1241
     45  CA        15.1590   37.8910   35.8680 C.3    88  TYR88       0.1605
     46  C         14.9660   39.2840   36.4710 C.2    88  TYR88       0.2264
     47  O         14.0270   40.0040   36.1040 O.2    88  TYR88      -0.2867
     48  CB        15.5590   38.0360   34.3960 C.3    88  TYR88       0.0534
     49  CG        16.8670   38.7750   34.1730 C.ar   88  TYR88      -0.0201
     50  CD1       18.0770   38.2510   34.6310 C.ar   88  TYR88      -0.0009
     51  CD2       16.8880   39.9950   33.4970 C.ar   88  TYR88      -0.0009
     52  CE1       19.2820   38.9260   34.4180 C.ar   88  TYR88       0.0417
     53  CE2       18.0880   40.6780   33.2730 C.ar   88  TYR88       0.0417
     54  CZ        19.2760   40.1370   33.7320 C.ar   88  TYR88       0.1957
     55  OH        20.4570   40.8090   33.5130 O.3    88  TYR88      -0.2866
     56  N         20.0370   43.8050   35.0680 N.3    91  ASN91      -0.1225
     57  CA        20.0980   44.8140   34.0040 C.3    91  ASN91       0.1785
     58  C         19.7550   44.1820   32.6570 C.2    91  ASN91       0.2597
     59  O         20.3870   43.2040   32.2560 O.2    91  ASN91      -0.2718
     60  CB        21.5110   45.4000   33.9490 C.3    91  ASN91       0.1169
     61  CG        21.5720   46.7430   33.2290 C.2    91  ASN91       0.2627
     62  OD1       20.7950   47.0210   32.3090 O.2    91  ASN91      -0.2716
     63  ND2       22.5180   47.5840   33.6450 N.am   91  ASN91      -0.0877
     64  N         18.7510   44.7310   31.9720 N.am   92  VAL92      -0.1966
     65  CA        18.3140   44.1950   30.6770 C.3    92  VAL92       0.1727
     66  C         19.3180   44.5460   29.5590 C.2    92  VAL92       0.2617
     67  O         19.5410   45.7140   29.2540 O.2    92  VAL92      -0.2715
     68  CB        16.8720   44.6560   30.3130 C.3    92  VAL92       0.0290
     69  CG1       16.5330   44.3150   28.8690 C.3    92  VAL92       0.0023
     70  CG2       15.8370   44.0320   31.2620 C.3    92  VAL92       0.0023
     71  N         19.9200   43.5190   28.9610 N.am   93  GLY93      -0.1940
     72  CA        20.8950   43.7100   27.9000 C.3    93  GLY93       0.2014
     73  C         20.3340   43.3660   26.5320 C.2    93  GLY93       0.2639
     74  O         19.5230   42.4340   26.3900 O.2    93  GLY93      -0.2714
     75  N         20.7550   44.1300   25.5240 N.am   94  VAL94      -0.1963
     76  CA        20.4070   43.8350   24.1360 C.3    94  VAL94       0.1727
     77  C         21.6870   43.4190   23.4020 C.2    94  VAL94       0.2616
     78  O         22.6760   44.1630   23.3900 O.2    94  VAL94      -0.2715
     79  CB        19.7350   45.0550   23.4330 C.3    94  VAL94       0.0290
     80  CG1       19.3920   44.7370   21.9670 C.3    94  VAL94       0.0023
     81  CG2       18.4720   45.4930   24.1880 C.3    94  VAL94       0.0023
     82  N         21.6760   42.2200   22.8210 N.am   95  VAL95      -0.1977
     83  CA        22.8040   41.7550   22.0060 C.3    95  VAL95       0.1596
     84  C         22.5730   42.1380   20.5400 C.2    95  VAL95       0.2287
     85  O         21.7100   41.5530   19.8720 O.2    95  VAL95      -0.2864
     86  CB        23.0230   40.2170   22.1250 C.3    95  VAL95       0.0276
     87  CG1       24.3330   39.7970   21.4350 C.3    95  VAL95       0.0022
     88  CG2       23.0020   39.7560   23.5990 C.3    95  VAL95       0.0022
@<TRIPOS>BOND
     1     8     9    1
     2     9    10    1
     3    85    84    2
     4    84    83    1
     5    10    12   am
     6    10    11    2
     7     4     3    2
     8    12    13    1
     9     3     2    1
    10    87    86    1
    11    15    14    2
    12    80    79    1
    13    83    86    1
    14    83    82    1
    15    86    88    1
    16    13    14    1
    17    13    16    1
    18    14    17   am
    19     6     5    1
    20     2     5    1
    21     2     1    1
    22    82    77   am
    23     5     7    1
    24    17    18    1
    25    78    77    2
    26    18    19    1
    27    77    76    1
    28    79    76    1
    29    79    81    1
    30    76    75    1
    31    19    20    2
    32    19    21   am
    33    27    25    1
    34    21    22    1
    35    75    73   am
    36    25    22    1
    37    25    26    1
    38    22    23    1
    39    74    73    2
    40    73    72    1
    41    23    28   am
    42    23    24    2
    43    72    71    1
    44    28    29    1
    45    33    35    1
    46    33    32    1
    47    69    68    1
    48    71    66   am
    49    67    66    2
    50    29    32    1
    51    29    30    1
    52    32    34    1
    53    66    65    1
    54    31    30    2
    55    30    36   am
    56    68    65    1
    57    68    70    1
    58    65    64    1
    59    36    37    1
    60    43    41   ar
    61    42    41   ar
    62    41    40    1
    63    37    40    1
    64    37    38    1
    65    64    58   am
    66    59    58    2
    67    62    61    2
    68    58    57    1
    69    38    39    2
    70    61    63   am
    71    61    60    1
    72    53    51   ar
    73    53    54   ar
    74    51    49   ar
    75    55    54    1
    76    54    52   ar
    77    60    57    1
    78    57    56    1
    79    49    48    1
    80    49    50   ar
    81    48    45    1
    82    52    50   ar
    83    45    44    1
    84    45    46    1
    85    47    46    2
