@<TRIPOS>MOLECULE
tmp/1q5kA00.pdb
 143 135 0 0 0
SMALL
GASTEIGER

@<TRIPOS>ATOM
      1  N         21.9360   16.3390   15.2170 N.3    27  VAL27      -0.1231
      2  CA        21.6740   17.7460   15.4760 C.3    27  VAL27       0.1692
      3  C         22.6990   18.5960   14.7270 C.2    27  VAL27       0.2591
      4  O         23.8950   18.3120   14.7730 O.2    27  VAL27      -0.2718
      5  CB        21.7630   18.0580   16.9820 C.3    27  VAL27       0.0266
      6  CG1       21.6090   19.5530   17.2160 C.3    27  VAL27       0.0020
      7  CG2       20.6790   17.2940   17.7290 C.3    27  VAL27       0.0020
      8  N         22.2240   19.6250   14.0280 N.am   28  ILE28      -0.1980
      9  CA        23.0970   20.5230   13.2710 C.3    28  ILE28       0.1595
     10  C         23.3200   21.8040   14.0550 C.2    28  ILE28       0.2287
     11  O         24.4040   22.3800   14.0290 O.2    28  ILE28      -0.2864
     12  CB        22.4820   20.9140   11.8970 C.3    28  ILE28       0.0276
     13  CG1       22.6040   19.7560   10.9130 C.3    28  ILE28       0.0022
     14  CG2       23.1790   22.1540   11.3380 C.3    28  ILE28       0.0022
     15  CD1       22.0110   20.0600    9.5480 C.3    28  ILE28       0.0001
     16  N         17.7050   22.4140   14.4780 N.3    36  VAL36      -0.1245
     17  CA        17.8690   22.0250   13.0890 C.3    36  VAL36       0.1561
     18  C         18.6230   20.7010   13.0930 C.2    36  VAL36       0.2260
     19  O         19.6680   20.5650   13.7360 O.2    36  VAL36      -0.2867
     20  CB        18.6700   23.0780   12.2890 C.3    36  VAL36       0.0252
     21  CG1       18.7820   22.6530   10.8360 C.3    36  VAL36       0.0019
     22  CG2       17.9870   24.4280   12.3850 C.3    36  VAL36       0.0019
     23  N         20.0350   17.1220   10.7950 N.3    38  GLN38      -0.1245
     24  CA        20.4900   16.6690    9.4990 C.3    38  GLN38       0.1566
     25  C         19.9030   15.2720    9.4220 C.2    38  GLN38       0.2260
     26  O         19.8430   14.5700   10.4340 O.2    38  GLN38      -0.2867
     27  CB        22.0120   16.5700    9.4230 C.3    38  GLN38       0.0367
     28  CG        22.4880   16.1130    8.0520 C.3    38  GLN38       0.0905
     29  CD        23.8750   15.5040    8.0800 C.2    38  GLN38       0.2608
     30  OE1       24.0690   14.4030    8.5840 O.2    38  GLN38      -0.2717
     31  NE2       24.8470   16.2240    7.5420 N.am   38  GLN38      -0.0878
     32  N         18.0000   18.9880    5.7700 N.3    49  ALA49      -0.1245
     33  CA        17.9980   19.6160    7.0690 C.3    49  ALA49       0.1562
     34  C         16.5350   19.6670    7.4940 C.2    49  ALA49       0.2260
     35  O         15.6520   19.9160    6.6750 O.2    49  ALA49      -0.2867
     36  CB        18.5740   21.0190    6.9760 C.3    49  ALA49       0.0290
     37  N         14.2240   21.5710   10.1600 N.3    51  LYS51      -0.1245
     38  CA        14.0800   22.6180   11.1630 C.3    51  LYS51       0.1561
     39  C         12.7830   22.3340   11.9090 C.2    51  LYS51       0.2260
     40  O         11.7020   22.3170   11.3160 O.2    51  LYS51      -0.2867
     41  CB        14.0230   23.9870   10.4820 C.3    51  LYS51       0.0271
     42  CG        13.9460   25.1660   11.4360 C.3    51  LYS51       0.0035
     43  CD        14.1530   26.4810   10.6860 C.3    51  LYS51       0.0206
     44  CE        14.1320   27.6680   11.6390 C.3    51  LYS51       0.1093
     45  NZ        14.2970   28.9660   10.9200 N.3    51  LYS51      -0.1314
     46  N         17.8000   28.4210    0.2140 N.3    76  VAL76      -0.1245
     47  CA        17.5770   27.0320    0.5770 C.3    76  VAL76       0.1561
     48  C         16.1390   26.6240    0.2350 C.2    76  VAL76       0.2260
     49  O         15.1770   27.3200    0.5720 O.2    76  VAL76      -0.2867
     50  CB        17.8640   26.7960    2.0810 C.3    76  VAL76       0.0252
     51  CG1       16.8570   27.5360    2.9360 C.3    76  VAL76       0.0019
     52  CG2       17.8380   25.3120    2.3850 C.3    76  VAL76       0.0019
     53  N         14.3370   20.9570    4.5560 N.3    96  LEU96      -0.1231
     54  CA        15.0860   21.8150    3.6510 C.3    96  LEU96       0.1693
     55  C         16.2800   21.1190    3.0170 C.2    96  LEU96       0.2592
     56  O         16.6880   20.0480    3.4600 O.2    96  LEU96      -0.2718
     57  CB        15.5900   23.0160    4.4470 C.3    96  LEU96       0.0284
     58  CG        14.5080   23.7530    5.2350 C.3    96  LEU96       0.0019
     59  CD1       15.0980   24.3990    6.4780 C.3    96  LEU96       0.0001
     60  CD2       13.8540   24.7760    4.3300 C.3    96  LEU96       0.0001
     61  N         16.8360   21.7320    1.9730 N.am   97  ASP97      -0.1960
     62  CA        18.0340   21.1730    1.3560 C.3    97  ASP97       0.1840
     63  C         19.1060   21.3110    2.4280 C.2    97  ASP97       0.2622
     64  O         19.1040   22.2770    3.1920 O.2    97  ASP97      -0.2715
     65  CB        18.5120   21.9940    0.1590 C.3    97  ASP97       0.1450
     66  CG        17.6980   21.7630   -1.0940 C.2    97  ASP97       0.3671
     67  OD1       17.2570   20.6150   -1.3370 O.co2  97  ASP97      -0.2456
     68  OD2       17.5300   22.7480   -1.8470 O.co2  97  ASP97      -0.2456
     69  N         20.0120   20.3480    2.4910 N.am   98  TYR98      -0.1960
     70  CA        21.1060   20.4210    3.4430 C.3    98  TYR98       0.1771
     71  C         22.3290   20.9460    2.6790 C.2    98  TYR98       0.2619
     72  O         22.6270   20.4690    1.5820 O.2    98  TYR98      -0.2715
     73  CB        21.4090   19.0350    4.0150 C.3    98  TYR98       0.0574
     74  CG        22.7240   18.9750    4.7630 C.ar   98  TYR98      -0.0198
     75  CD1       22.8450   19.4940    6.0520 C.ar   98  TYR98      -0.0009
     76  CD2       23.8580   18.4350    4.1580 C.ar   98  TYR98      -0.0009
     77  CE1       24.0700   19.4780    6.7220 C.ar   98  TYR98       0.0417
     78  CE2       25.0850   18.4160    4.8160 C.ar   98  TYR98       0.0417
     79  CZ        25.1830   18.9370    6.0920 C.ar   98  TYR98       0.1957
     80  OH        26.3980   18.9220    6.7340 O.3    98  TYR98      -0.2866
     81  N         23.0080   21.9460    3.2380 N.am   99  VAL99      -0.1964
     82  CA        24.2120   22.4940    2.6140 C.3    99  VAL99       0.1712
     83  C         25.3220   22.2530    3.6460 C.2    99  VAL99       0.2458
     84  O         25.1650   22.5730    4.8220 O.2    99  VAL99      -0.2730
     85  CB        24.0630   23.9980    2.3110 C.3    99  VAL99       0.0289
     86  CG1       25.2660   24.4940    1.5090 C.3    99  VAL99       0.0023
     87  CG2       22.7930   24.2370    1.5000 C.3    99  VAL99       0.0023
     88  N         26.4560   21.6800    3.2130 N.am  100  PRO100     -0.2716
     89  CA        27.5920   21.3720    4.0930 C.3   100  PRO100      0.1536
     90  C         28.1680   22.4480    5.0070 C.2   100  PRO100      0.2598
     91  O         28.3710   22.2060    6.1890 O.2   100  PRO100     -0.2715
     92  CB        28.6450   20.8340    3.1230 C.3   100  PRO100      0.0310
     93  CG        27.8210   20.2490    2.0140 C.3   100  PRO100      0.0237
     94  CD        26.7730   21.3190    1.8200 C.3   100  PRO100      0.0939
     95  N         28.4320   23.6310    4.4740 N.am  101  GLU101     -0.1964
     96  CA        29.0490   24.6910    5.2700 C.3   101  GLU101      0.1733
     97  C         28.2660   25.9930    5.3800 C.2   101  GLU101      0.2617
     98  O         27.1750   26.1290    4.8330 O.2   101  GLU101     -0.2715
     99  CB        30.4270   25.0120    4.6750 C.3   101  GLU101      0.0429
    100  CG        31.4900   23.9490    4.9190 C.3   101  GLU101      0.1163
    101  CD        31.8590   23.8420    6.3820 C.2   101  GLU101      0.3649
    102  OE1       31.5560   24.7940    7.1360 O.co2 101  GLU101     -0.2457
    103  OE2       32.4600   22.8170    6.7770 O.co2 101  GLU101     -0.2457
    104  N         28.8470   26.9500    6.1020 N.am  102  THR102     -0.1951
    105  CA        28.2620   28.2780    6.2510 C.3   102  THR102      0.1897
    106  C         29.4080   29.2720    6.1140 C.2   102  THR102      0.2313
    107  O         30.5690   28.9240    6.3410 O.2   102  THR102     -0.2863
    108  CB        27.5950   28.4980    7.6300 C.3   102  THR102      0.1794
    109  OG1       28.5970   28.5630    8.6530 O.3   102  THR102     -0.2208
    110  CG2       26.6220   27.3690    7.9430 C.3   102  THR102      0.0378
    111  N         31.3900   29.5320    9.4510 N.3   105  ARG105     -0.1245
    112  CA        32.3810   28.4860    9.6840 C.3   105  ARG105      0.1563
    113  C         33.6130   28.6360    8.7950 C.2   105  ARG105      0.2260
    114  O         34.7320   28.5160    9.2750 O.2   105  ARG105     -0.2867
    115  CB        31.7520   27.1050    9.4740 C.3   105  ARG105      0.0307
    116  CG        30.7490   26.7130   10.5600 C.3   105  ARG105      0.0489
    117  CD        29.8460   25.5910   10.0910 C.3   105  ARG105      0.2205
    118  NE        30.5950   24.4150    9.6540 N.pl3 105  ARG105     -0.0865
    119  CZ        30.9250   23.3960   10.4430 C.cat 105  ARG105      0.5346
    120  NH1       30.5720   23.3970   11.7250 N.pl3 105  ARG105      0.1354
    121  NH2       31.6070   22.3700    9.9480 N.pl3 105  ARG105      0.1354
    122  N         24.6060   29.7300    3.7390 N.3   152  LEU152     -0.1245
    123  CA        25.0950   28.3740    3.5350 C.3   152  LEU152      0.1561
    124  C         26.0070   28.3220    2.3190 C.2   152  LEU152      0.2260
    125  O         25.8100   29.0430    1.3410 O.2   152  LEU152     -0.2867
    126  CB        23.9180   27.4110    3.3540 C.3   152  LEU152      0.0270
    127  CG        22.8320   27.5030    4.4390 C.3   152  LEU152      0.0019
    128  CD1       21.7090   26.5240    4.1090 C.3   152  LEU152      0.0001
    129  CD2       23.4230   27.2090    5.8150 C.3   152  LEU152      0.0001
    130  N         19.5270   31.1780    4.1600 N.3   163  CYS163     -0.1221
    131  CA        18.6160   30.3610    4.9600 C.3   163  CYS163      0.1808
    132  C         18.0720   31.1080    6.1710 C.2   163  CYS163      0.2601
    133  O         18.3420   32.2930    6.3550 O.2   163  CYS163     -0.2717
    134  CB        19.2830   29.0510    5.4170 C.3   163  CYS163      0.0970
    135  SG        20.5220   29.1890    6.7360 S.3   163  CYS163     -0.0800
    136  N         17.3070   30.3820    6.9830 N.am  164  ASP164     -0.1973
    137  CA        16.6580   30.8900    8.1900 C.3   164  ASP164      0.1709
    138  C         15.7560   32.0900    7.9390 C.2   164  ASP164      0.2293
    139  O         16.1480   33.2350    8.1530 O.2   164  ASP164     -0.2864
    140  CB        17.6780   31.2410    9.2800 C.3   164  ASP164      0.1436
    141  CG        17.0040   31.6010   10.6030 C.2   164  ASP164      0.3671
    142  OD1       15.7740   31.3930   10.7260 O.co2 164  ASP164     -0.2456
    143  OD2       17.6970   32.0830   11.5220 O.co2 164  ASP164     -0.2456
@<TRIPOS>BOND
     1    68    66   ar
     2    67    66   ar
     3    66    65    1
     4    65    62    1
     5    46    47    1
     6    48    49    2
     7    48    47    1
     8    47    50    1
     9   125   124    2
    10    62    61    1
    11    62    63    1
    12    87    85    1
    13    86    85    1
    14    72    71    2
    15    94    93    1
    16    94    88    1
    17    61    55   am
    18    93    92    1
    19    50    52    1
    20    50    51    1
    21    85    82    1
    22   124   123    1
    23    63    69   am
    24    63    64    2
    25    69    70    1
    26    82    81    1
    27    82    83    1
    28    71    81   am
    29    71    70    1
    30    55    56    2
    31    55    54    1
    32    92    89    1
    33    88    83   am
    34    88    89    1
    35   126   123    1
    36   126   127    1
    37    70    73    1
    38   123   122    1
    39    83    84    2
    40    54    57    1
    41    54    53    1
    42    73    74    1
    43    89    90    1
    44   128   127    1
    45    76    74   ar
    46    76    78   ar
    47   130   131    1
    48    60    58    1
    49   127   129    1
    50    57    58    1
    51    95    90   am
    52    95    96    1
    53    99   100    1
    54    99    96    1
    55    74    75   ar
    56    78    79   ar
    57    98    97    2
    58   100   101    1
    59   131   134    1
    60   131   132    1
    61    90    91    2
    62    58    59    1
    63    96    97    1
    64    97   104   am
    65   134   135    1
    66    32    33    1
    67    75    77   ar
    68    79    77   ar
    69    79    80    1
    70   104   105    1
    71   106   105    1
    72   106   107    2
    73   132   133    2
    74   132   136   am
    75   105   108    1
    76   101   103   ar
    77   101   102   ar
    78    35    34    2
    79    36    33    1
    80   136   137    1
    81    33    34    1
    82    31    29   am
    83   108   110    1
    84   108   109    1
    85   138   139    2
    86   138   137    1
    87    28    29    1
    88    28    27    1
    89    29    30    2
    90   137   140    1
    91   113   114    2
    92   113   112    1
    93   140   141    1
    94    25    24    1
    95    25    26    2
    96    27    24    1
    97   111   112    1
    98   115   112    1
    99   115   116    1
   100    24    23    1
   101    15    13    1
   102   118   117    1
   103   118   119    2
   104   121   119    1
   105   117   116    1
   106    37    38    1
   107   119   120    1
   108    41    38    1
   109    41    42    1
   110   141   142   ar
   111   141   143   ar
   112    43    42    1
   113    43    44    1
   114    21    20    1
   115    13    12    1
   116    45    44    1
   117    38    39    1
   118    40    39    2
   119    14    12    1
   120    12     9    1
   121    20    22    1
   122    20    17    1
   123    17    18    1
   124    17    16    1
   125    18    19    2
   126     9     8    1
   127     9    10    1
   128     8     3   am
   129    11    10    2
   130     3     4    2
   131     3     2    1
   132     1     2    1
   133     2     5    1
   134     5     6    1
   135     5     7    1
