@<TRIPOS>MOLECULE
tmp/1q65A00.pdb
 156 146 0 0 0
SMALL
GASTEIGER

@<TRIPOS>ATOM
      1  N         10.2800    9.6940   11.8660 N.3    35  VAL35      -0.1245
      2  CA         9.6150   10.6470   12.7400 C.3    35  VAL35       0.1561
      3  C          8.1510   10.8830   12.3950 C.2    35  VAL35       0.2260
      4  O          7.8010   11.1370   11.2400 O.2    35  VAL35      -0.2867
      5  CB        10.3600   11.9920   12.7350 C.3    35  VAL35       0.0252
      6  CG1        9.6740   12.9740   13.6660 C.3    35  VAL35       0.0019
      7  CG2       11.8020   11.7760   13.1690 C.3    35  VAL35       0.0019
      8  N          9.2600    7.5770   16.0190 N.3    58  LEU58      -0.1245
      9  CA         9.3160    8.6020   17.0440 C.3    58  LEU58       0.1561
     10  C          8.0270    9.4070   16.9960 C.2    58  LEU58       0.2260
     11  O          7.6570    9.9420   15.9570 O.2    58  LEU58      -0.2867
     12  CB        10.5310    9.5110   16.8190 C.3    58  LEU58       0.0270
     13  CG        10.7940   10.6030   17.8640 C.3    58  LEU58       0.0019
     14  CD1       12.2550   11.0050   17.8260 C.3    58  LEU58       0.0001
     15  CD2        9.9030   11.8020   17.6010 C.3    58  LEU58       0.0001
     16  N          9.5510   12.2120   22.4110 N.3    92  ASP92      -0.1225
     17  CA        10.4820   13.1700   22.9990 C.3    92  ASP92       0.1805
     18  C          9.6730   13.8700   24.0890 C.2    92  ASP92       0.2598
     19  O          8.4510   13.7400   24.1280 O.2    92  ASP92      -0.2718
     20  CB        10.9790   14.1880   21.9680 C.3    92  ASP92       0.1424
     21  CG        12.1700   14.9950   22.4760 C.2    92  ASP92       0.3668
     22  OD1       12.6680   15.8600   21.7260 O.co2  92  ASP92      -0.2456
     23  OD2       12.6120   14.7620   23.6300 O.co2  92  ASP92      -0.2456
     24  N         10.3410   14.6080   24.9680 N.am   93  SER93      -0.1952
     25  CA         9.6590   15.2770   26.0730 C.3    93  SER93       0.1924
     26  C          8.9140   16.5780   25.7580 C.2    93  SER93       0.2314
     27  O          8.1780   17.0940   26.6020 O.2    93  SER93      -0.2863
     28  CB        10.6510   15.5080   27.2120 C.3    93  SER93       0.2116
     29  OG        11.9050   15.9250   26.7140 O.3    93  SER93      -0.2180
     30  N         12.2020   20.7080   24.6010 N.3    96  TYR96      -0.1227
     31  CA        13.1780   21.2110   23.6420 C.3    96  TYR96       0.1736
     32  C         12.5270   21.9880   22.5070 C.2    96  TYR96       0.2595
     33  O         12.8930   23.1330   22.2460 O.2    96  TYR96      -0.2718
     34  CB        13.9960   20.0570   23.0660 C.3    96  TYR96       0.0548
     35  CG        15.4280   20.4280   22.7580 C.ar   96  TYR96      -0.0200
     36  CD1       16.3420   20.6580   23.7860 C.ar   96  TYR96      -0.0009
     37  CD2       15.8680   20.5640   21.4410 C.ar   96  TYR96      -0.0009
     38  CE1       17.6610   21.0130   23.5140 C.ar   96  TYR96       0.0417
     39  CE2       17.1860   20.9220   21.1570 C.ar   96  TYR96       0.0417
     40  CZ        18.0760   21.1440   22.1990 C.ar   96  TYR96       0.1957
     41  OH        19.3770   21.5010   21.9280 O.3    96  TYR96      -0.2866
     42  N         11.5690   21.3660   21.8290 N.am   97  GLN97      -0.1979
     43  CA        10.8750   22.0180   20.7260 C.3    97  GLN97       0.1601
     44  C         10.1900   23.3130   21.1550 C.2    97  GLN97       0.2287
     45  O         10.2350   24.3080   20.4300 O.2    97  GLN97      -0.2864
     46  CB         9.8540   21.0630   20.1060 C.3    97  GLN97       0.0394
     47  CG        10.4630   20.0920   19.1100 C.3    97  GLN97       0.0908
     48  CD         9.8770   18.7010   19.2120 C.2    97  GLN97       0.2608
     49  OE1       10.0480   18.0200   20.2220 O.2    97  GLN97      -0.2717
     50  NE2        9.1810   18.2700   18.1660 N.am   97  GLN97      -0.0878
     51  N          9.9730   26.0330   18.2400 N.3   101  LEU101     -0.1245
     52  CA         8.7430   26.3280   17.5100 C.3   101  LEU101      0.1561
     53  C          7.7840   27.1410   18.3750 C.2   101  LEU101      0.2260
     54  O          6.5700   27.1220   18.1640 O.2   101  LEU101     -0.2867
     55  CB         8.0580   25.0300   17.0690 C.3   101  LEU101      0.0270
     56  CG         8.7590   24.1600   16.0210 C.3   101  LEU101      0.0019
     57  CD1       10.0760   23.6320   16.5680 C.3   101  LEU101      0.0001
     58  CD2        7.8470   23.0050   15.6370 C.3   101  LEU101      0.0001
     59  N         14.1410   17.7580   29.5480 N.3   143  ASP143     -0.1239
     60  CA        15.3820   18.5080   29.6640 C.3   143  ASP143      0.1674
     61  C         15.2390   19.9340   29.1480 C.2   143  ASP143      0.2266
     62  O         14.2100   20.2960   28.5730 O.2   143  ASP143     -0.2867
     63  CB        16.4960   17.7830   28.8980 C.3   143  ASP143      0.1410
     64  CG        16.1940   17.6430   27.4100 C.2   143  ASP143      0.3668
     65  OD1       15.0010   17.6060   27.0420 O.co2 143  ASP143     -0.2456
     66  OD2       17.1520   17.5490   26.6090 O.co2 143  ASP143     -0.2456
     67  N         18.7510   12.1990   29.3910 N.3   188  ILE188     -0.1245
     68  CA        19.4600   12.9140   28.3330 C.3   188  ILE188      0.1561
     69  C         20.6750   13.6740   28.8460 C.2   188  ILE188      0.2260
     70  O         20.5630   14.5210   29.7350 O.2   188  ILE188     -0.2867
     71  CB        18.5610   13.9390   27.6300 C.3   188  ILE188      0.0252
     72  CG1       17.2650   13.2790   27.1580 C.3   188  ILE188      0.0019
     73  CG2       19.3070   14.5350   26.4490 C.3   188  ILE188      0.0019
     74  CD1       16.2590   14.2640   26.5840 C.3   188  ILE188      0.0001
     75  N         23.5980   16.4040   28.7650 N.3   190  GLN190     -0.1245
     76  CA        23.7640   17.7640   28.2640 C.3   190  GLN190      0.1566
     77  C         25.1800   18.2130   28.6170 C.2   190  GLN190      0.2260
     78  O         25.9940   17.4100   29.0770 O.2   190  GLN190     -0.2867
     79  CB        22.7400   18.7070   28.8980 C.3   190  GLN190      0.0367
     80  CG        21.2960   18.4690   28.4690 C.3   190  GLN190      0.0905
     81  CD        21.0870   18.6630   26.9760 C.2   190  GLN190      0.2608
     82  OE1       21.7900   19.4460   26.3360 O.2   190  GLN190     -0.2717
     83  NE2       20.1060   17.9620   26.4190 N.am  190  GLN190     -0.0878
     84  N         22.2240   14.6180   24.1690 N.3   216  GLY216     -0.1210
     85  CA        21.4670   15.7510   23.6740 C.3   216  GLY216      0.1956
     86  C         22.3600   16.9560   23.4630 C.2   216  GLY216      0.2612
     87  O         23.5690   16.8930   23.7100 O.2   216  GLY216     -0.2717
     88  N         21.7690   18.0490   22.9920 N.am  217  GLY217     -0.1942
     89  CA        22.5250   19.2700   22.7750 C.3   217  GLY217      0.2014
     90  C         23.4480   19.3050   21.5690 C.2   217  GLY217      0.2639
     91  O         24.2350   20.2440   21.4210 O.2   217  GLY217     -0.2714
     92  N         23.3780   18.2900   20.7100 N.am  218  LEU218     -0.1963
     93  CA        24.2190   18.2730   19.5190 C.3   218  LEU218      0.1728
     94  C         23.3710   18.4910   18.2820 C.2   218  LEU218      0.2616
     95  O         22.1490   18.5660   18.3660 O.2   218  LEU218     -0.2715
     96  CB        24.9920   16.9570   19.4090 C.3   218  LEU218      0.0311
     97  CG        26.1140   16.8120   20.4400 C.3   218  LEU218      0.0022
     98  CD1       26.8970   15.5310   20.1770 C.3   218  LEU218      0.0001
     99  CD2       27.0350   18.0240   20.3670 C.3   218  LEU218      0.0001
    100  N         24.0210   18.6000   17.1300 N.am  219  ALA219     -0.1963
    101  CA        23.3040   18.8350   15.8870 C.3   219  ALA219      0.1728
    102  C         22.5240   20.1400   16.0120 C.2   219  ALA219      0.2616
    103  O         21.4030   20.2550   15.5240 O.2   219  ALA219     -0.2715
    104  CB        22.3540   17.6770   15.6010 C.3   219  ALA219      0.0334
    105  N         23.1230   21.1190   16.6830 N.am  220  VAL220     -0.1977
    106  CA        22.4950   22.4210   16.8750 C.3   220  VAL220      0.1596
    107  C         23.2310   23.4930   16.0790 C.2   220  VAL220      0.2287
    108  O         23.0480   24.6870   16.3200 O.2   220  VAL220     -0.2864
    109  CB        22.4870   22.8280   18.3610 C.3   220  VAL220      0.0276
    110  CG1       21.5920   21.8910   19.1500 C.3   220  VAL220      0.0022
    111  CG2       23.9030   22.7960   18.9160 C.3   220  VAL220      0.0022
    112  N         21.5690    6.9390   22.5120 N.3   245  TYR245     -0.1241
    113  CA        20.7110    7.5920   21.5390 C.3   245  TYR245      0.1605
    114  C         21.1300    9.0110   21.1700 C.2   245  TYR245      0.2264
    115  O         21.1620    9.8920   22.0200 O.2   245  TYR245     -0.2867
    116  CB        19.2820    7.5670   22.1080 C.3   245  TYR245      0.0534
    117  CG        18.2230    8.3950   21.4080 C.ar  245  TYR245     -0.0201
    118  CD1       18.2230    8.5650   20.0270 C.ar  245  TYR245     -0.0009
    119  CD2       17.1670    8.9490   22.1380 C.ar  245  TYR245     -0.0009
    120  CE1       17.1910    9.2640   19.3890 C.ar  245  TYR245      0.0417
    121  CE2       16.1370    9.6450   21.5130 C.ar  245  TYR245      0.0417
    122  CZ        16.1520    9.7970   20.1430 C.ar  245  TYR245      0.1957
    123  OH        15.1240   10.4680   19.5350 O.3   245  TYR245     -0.2866
    124  N         20.0510   12.2040   19.4760 N.3   247  MET247     -0.1230
    125  CA        18.8380   12.8840   19.0380 C.3   247  MET247      0.1702
    126  C         19.0340   13.8720   17.8860 C.2   247  MET247      0.2592
    127  O         20.0320   14.5950   17.8330 O.2   247  MET247     -0.2718
    128  CB        18.2170   13.6250   20.2250 C.3   247  MET247      0.0401
    129  CG        18.1690   12.8130   21.5180 C.3   247  MET247      0.0596
    130  SD        17.3550   13.6880   22.8790 S.3   247  MET247     -0.1393
    131  CE        15.6520   13.4170   22.4440 C.3   247  MET247      0.0692
    132  N         18.0700   13.8840   16.9690 N.am  248  GLY248     -0.1957
    133  CA        18.1020   14.8010   15.8420 C.3   248  GLY248      0.1869
    134  C         19.2630   14.6920   14.8750 C.2   248  GLY248      0.2309
    135  O         19.6670   15.6910   14.2880 O.2   248  GLY248     -0.2863
    136  N         17.2080    9.3470   14.9700 N.3   267  ASP267     -0.1225
    137  CA        15.9170    9.8410   14.5260 C.3   267  ASP267      0.1805
    138  C         16.2320   11.1110   13.7570 C.2   267  ASP267      0.2598
    139  O         17.1700   11.8300   14.1080 O.2   267  ASP267     -0.2718
    140  CB        15.0070   10.1760   15.7120 C.3   267  ASP267      0.1424
    141  CG        15.2540   11.5690   16.2620 C.2   267  ASP267      0.3668
    142  OD1       16.0240   11.7150   17.2310 O.co2 267  ASP267     -0.2456
    143  OD2       14.6770   12.5270   15.7090 O.co2 267  ASP267     -0.2456
    144  N         15.4690   11.3880   12.7070 N.am  268  CYS268     -0.1956
    145  CA        15.6900   12.5980   11.9220 C.3   268  CYS268      0.1843
    146  C         14.5130   12.7840   10.9840 C.2   268  CYS268      0.2625
    147  O         13.9850   11.8090   10.4540 O.2   268  CYS268     -0.2714
    148  CB        16.9930   12.4860   11.1210 C.3   268  CYS268      0.0997
    149  SG        17.6970   14.0770   10.5600 S.3   268  CYS268     -0.0797
    150  N         14.0930   14.0310   10.7930 N.am  269  VAL269     -0.1977
    151  CA        12.9680   14.3330    9.9100 C.3   269  VAL269      0.1596
    152  C         13.4710   14.4850    8.4850 C.2   269  VAL269      0.2287
    153  O         12.7000   14.4280    7.5270 O.2   269  VAL269     -0.2864
    154  CB        12.2610   15.6430   10.3120 C.3   269  VAL269      0.0276
    155  CG1       11.6760   15.5130   11.7060 C.3   269  VAL269      0.0022
    156  CG2       13.2400   16.8030   10.2450 C.3   269  VAL269      0.0022
@<TRIPOS>BOND
     1   153   152    2
     2   152   151    1
     3   151   154    1
     4   151   150    1
     5   156   154    1
     6   154   155    1
     7   147   146    2
     8   149   148    1
     9   150   146   am
    10   146   145    1
    11   148   145    1
    12     4     3    2
    13     1     2    1
    14   145   144    1
    15     3     2    1
    16   144   138   am
    17     5     2    1
    18     5     7    1
    19     5     6    1
    20   138   139    2
    21   138   137    1
    22   135   134    2
    23   137   136    1
    24   137   140    1
    25   134   133    1
    26   103   102    2
    27   104   101    1
    28    58    56    1
    29   143   141   ar
    30   140   141    1
    31   133   132    1
    32   101   102    1
    33   101   100    1
    34    11    10    2
    35   102   105   am
    36     8     9    1
    37    56    57    1
    38    56    55    1
    39   107   108    2
    40   107   106    1
    41   141   142   ar
    42   105   106    1
    43    12     9    1
    44    12    13    1
    45   106   109    1
    46   132   126   am
    47    10     9    1
    48    55    52    1
    49   100    94   am
    50    52    51    1
    51    52    53    1
    52    15    13    1
    53    14    13    1
    54   127   126    2
    55   126   125    1
    56    54    53    2
    57    50    48   am
    58    94    95    2
    59    94    93    1
    60   109   111    1
    61   109   110    1
    62   125   124    1
    63   125   128    1
    64    47    48    1
    65    47    46    1
    66    48    49    2
    67   120   118   ar
    68   120   122   ar
    69    96    93    1
    70    96    97    1
    71    93    92    1
    72   123   122    1
    73   118   117   ar
    74    46    43    1
    75   122   121   ar
    76    98    97    1
    77   128   129    1
    78    99    97    1
    79    45    44    2
    80    92    90   am
    81    43    44    1
    82    43    42    1
    83    39    37   ar
    84    39    40   ar
    85   114   113    1
    86   114   115    2
    87   117   116    1
    88   117   119   ar
    89    91    90    2
    90    37    35   ar
    91   121   119   ar
    92   129   130    1
    93   113   116    1
    94   113   112    1
    95    90    89    1
    96    22    21   ar
    97    42    32   am
    98    41    40    1
    99    20    21    1
   100    20    17    1
   101    40    38   ar
   102    33    32    2
   103    16    17    1
   104   131   130    1
   105    21    23   ar
   106    32    31    1
   107    35    34    1
   108    35    36   ar
   109    89    88    1
   110    88    86   am
   111    17    18    1
   112    34    31    1
   113    86    85    1
   114    86    87    2
   115    38    36   ar
   116    31    30    1
   117    85    84    1
   118    18    19    2
   119    18    24   am
   120    24    25    1
   121    26    25    1
   122    26    27    2
   123    25    28    1
   124    82    81    2
   125    83    81   am
   126    73    71    1
   127    74    72    1
   128    66    64   ar
   129    29    28    1
   130    81    80    1
   131    65    64   ar
   132    72    71    1
   133    64    63    1
   134    71    68    1
   135    76    77    1
   136    76    75    1
   137    76    79    1
   138    68    69    1
   139    68    67    1
   140    80    79    1
   141    62    61    2
   142    77    78    2
   143    69    70    2
   144    63    60    1
   145    61    60    1
   146    59    60    1
