@<TRIPOS>MOLECULE
tmp/1q66A00.pdb
 166 157 0 0 0
SMALL
GASTEIGER

@<TRIPOS>ATOM
      1  N         10.5020    9.6870   11.7760 N.3    35  VAL35      -0.1245
      2  CA         9.7900   10.6270   12.6290 C.3    35  VAL35       0.1561
      3  C          8.3940   10.9580   12.1220 C.2    35  VAL35       0.2260
      4  O          8.2070   11.2820   10.9480 O.2    35  VAL35      -0.2867
      5  CB        10.5860   11.9430   12.7830 C.3    35  VAL35       0.0252
      6  CG1        9.8710   12.8790   13.7480 C.3    35  VAL35       0.0019
      7  CG2       11.9920   11.6420   13.2800 C.3    35  VAL35       0.0019
      8  N          9.3280    7.5460   15.8630 N.3    58  LEU58      -0.1245
      9  CA         9.3800    8.5920   16.8750 C.3    58  LEU58       0.1561
     10  C          8.1000    9.4200   16.8180 C.2    58  LEU58       0.2260
     11  O          7.6400    9.8050   15.7430 O.2    58  LEU58      -0.2867
     12  CB        10.6170    9.4740   16.6520 C.3    58  LEU58       0.0270
     13  CG        10.9520   10.5510   17.6940 C.3    58  LEU58       0.0019
     14  CD1       12.4360   10.8820   17.6340 C.3    58  LEU58       0.0001
     15  CD2       10.1150   11.7880   17.4450 C.3    58  LEU58       0.0001
     16  N          6.1420   12.8350   17.7130 N.3    60  ASN60      -0.1225
     17  CA         6.4040   14.2400   18.0030 C.3    60  ASN60       0.1785
     18  C          5.4370   14.7620   19.0600 C.2    60  ASN60       0.2598
     19  O          4.3170   15.1810   18.7520 O.2    60  ASN60      -0.2718
     20  CB         6.2880   15.0690   16.7220 C.3    60  ASN60       0.1169
     21  CG         6.8700   16.4610   16.8720 C.2    60  ASN60       0.2627
     22  OD1        7.0630   17.1720   15.8870 O.2    60  ASN60      -0.2716
     23  ND2        7.1520   16.8580   18.1070 N.am   60  ASN60      -0.0877
     24  N          5.8920   14.7370   20.3070 N.am   61  THR61      -0.1939
     25  CA         5.1100   15.1750   21.4520 C.3    61  THR61       0.2028
     26  C          4.5940   16.6090   21.3530 C.2    61  THR61       0.2642
     27  O          3.3980   16.8630   21.5110 O.2    61  THR61      -0.2714
     28  CB         5.9420   15.0390   22.7390 C.3    61  THR61       0.1808
     29  OG1        6.3410   13.6720   22.9020 O.3    61  THR61      -0.2208
     30  CG2        5.1360   15.4720   23.9510 C.3    61  THR61       0.0379
     31  N          5.5020   17.5430   21.0970 N.am   62  TYR62      -0.1973
     32  CA         5.1420   18.9520   21.0000 C.3    62  TYR62       0.1639
     33  C          3.8610   19.1930   20.2130 C.2    62  TYR62       0.2290
     34  O          2.9320   19.8330   20.7070 O.2    62  TYR62      -0.2864
     35  CB         6.2850   19.7490   20.3680 C.3    62  TYR62       0.0560
     36  CG         5.9730   21.2210   20.2240 C.ar   62  TYR62      -0.0198
     37  CD1        5.6940   22.0070   21.3420 C.ar   62  TYR62      -0.0009
     38  CD2        5.9360   21.8240   18.9700 C.ar   62  TYR62      -0.0009
     39  CE1        5.3830   23.3580   21.2130 C.ar   62  TYR62       0.0417
     40  CE2        5.6280   23.1720   18.8290 C.ar   62  TYR62       0.0417
     41  CZ         5.3510   23.9330   19.9540 C.ar   62  TYR62       0.1957
     42  OH         5.0330   25.2640   19.8150 O.3    62  TYR62      -0.2866
     43  N          9.6270   12.2350   22.2180 N.3    92  ASP92      -0.1225
     44  CA        10.5520   13.2050   22.7940 C.3    92  ASP92       0.1805
     45  C          9.7930   13.8700   23.9380 C.2    92  ASP92       0.2598
     46  O          8.5820   13.6840   24.0710 O.2    92  ASP92      -0.2718
     47  CB        10.9940   14.2510   21.7670 C.3    92  ASP92       0.1424
     48  CG        12.2120   15.0420   22.2360 C.2    92  ASP92       0.3668
     49  OD1       12.6580   15.9470   21.5030 O.co2  92  ASP92      -0.2456
     50  OD2       12.7300   14.7530   23.3410 O.co2  92  ASP92      -0.2456
     51  N         10.4980   14.6350   24.7640 N.am   93  SER93      -0.1938
     52  CA         9.8780   15.2840   25.9130 C.3    93  SER93       0.2055
     53  C          9.1210   16.5720   25.6010 C.2    93  SER93       0.2643
     54  O          8.3880   17.0840   26.4500 O.2    93  SER93      -0.2714
     55  CB        10.9380   15.5480   26.9850 C.3    93  SER93       0.2130
     56  OG        12.0590   16.2100   26.4320 O.3    93  SER93      -0.2179
     57  N          9.3070   17.0990   24.3930 N.am   94  GLY94      -0.1954
     58  CA         8.6080   18.3090   23.9900 C.3    94  GLY94       0.1869
     59  C          9.2480   19.6320   24.3700 C.2    94  GLY94       0.2309
     60  O          8.9480   20.6630   23.7670 O.2    94  GLY94      -0.2863
     61  N         12.4630   20.6570   24.0700 N.3    96  TYR96      -0.1227
     62  CA        13.3800   21.1490   23.0480 C.3    96  TYR96       0.1736
     63  C         12.6230   21.8130   21.9020 C.2    96  TYR96       0.2595
     64  O         13.0080   22.8830   21.4320 O.2    96  TYR96      -0.2718
     65  CB        14.2180   19.9950   22.4980 C.3    96  TYR96       0.0548
     66  CG        15.5410   20.4190   21.9030 C.ar   96  TYR96      -0.0200
     67  CD1       16.6170   20.7630   22.7220 C.ar   96  TYR96      -0.0009
     68  CD2       15.7200   20.4790   20.5210 C.ar   96  TYR96      -0.0009
     69  CE1       17.8400   21.1540   22.1830 C.ar   96  TYR96       0.0417
     70  CE2       16.9390   20.8710   19.9690 C.ar   96  TYR96       0.0417
     71  CZ        17.9940   21.2060   20.8060 C.ar   96  TYR96       0.1957
     72  OH        19.2020   21.5910   20.2700 O.3    96  TYR96      -0.2866
     73  N         11.5490   21.1700   21.4550 N.am   97  GLN97      -0.1979
     74  CA        10.7360   21.6950   20.3620 C.3    97  GLN97       0.1601
     75  C         10.0870   23.0240   20.7340 C.2    97  GLN97       0.2287
     76  O         10.0140   23.9360   19.9110 O.2    97  GLN97      -0.2864
     77  CB         9.6670   20.6820   19.9740 C.3    97  GLN97       0.0394
     78  CG        10.2780   19.3170   19.6280 C.3    97  GLN97       0.0908
     79  CD        11.1030   19.3460   18.3440 C.2    97  GLN97       0.2608
     80  OE1       10.6530   19.8070   17.2990 O.2    97  GLN97      -0.2717
     81  NE2       12.3530   18.9300   18.4580 N.am   97  GLN97      -0.0878
     82  N         14.3700   17.8150   29.1570 N.3   141  ASP141     -0.1239
     83  CA        15.6160   18.5640   29.2600 C.3   141  ASP141      0.1674
     84  C         15.4980   19.9820   28.7100 C.2   141  ASP141      0.2266
     85  O         14.5100   20.3340   28.0660 O.2   141  ASP141     -0.2867
     86  CB        16.7330   17.8090   28.5240 C.3   141  ASP141      0.1410
     87  CG        16.4680   17.6720   27.0270 C.2   141  ASP141      0.3668
     88  OD1       15.2900   17.5970   26.6290 O.co2 141  ASP141     -0.2456
     89  OD2       17.4410   17.6190   26.2470 O.co2 141  ASP141     -0.2456
     90  N         19.0890   12.2190   29.0270 N.3   186  ILE186     -0.1245
     91  CA        19.7550   12.9480   27.9500 C.3   186  ILE186      0.1561
     92  C         20.9860   13.7140   28.4200 C.2   186  ILE186      0.2260
     93  O         20.9000   14.5810   29.2930 O.2   186  ILE186     -0.2867
     94  CB        18.7870   13.9410   27.2780 C.3   186  ILE186      0.0252
     95  CG1       17.5240   13.2000   26.8270 C.3   186  ILE186      0.0019
     96  CG2       19.4640   14.5970   26.0790 C.3   186  ILE186      0.0019
     97  CD1       16.4030   14.1040   26.3580 C.3   186  ILE186      0.0001
     98  N         23.8650   16.4190   28.2810 N.3   188  GLN188     -0.1245
     99  CA        24.0180   17.7650   27.7400 C.3   188  GLN188      0.1566
    100  C         25.4470   18.2290   28.0230 C.2   188  GLN188      0.2260
    101  O         26.2940   17.4250   28.4070 O.2   188  GLN188     -0.2867
    102  CB        22.9990   18.7220   28.3690 C.3   188  GLN188      0.0367
    103  CG        21.5490   18.4890   27.9280 C.3   188  GLN188      0.0905
    104  CD        21.3320   18.6990   26.4290 C.2   188  GLN188      0.2608
    105  OE1       22.1200   19.3670   25.7570 O.2   188  GLN188     -0.2717
    106  NE2       20.2450   18.1420   25.9080 N.am  188  GLN188     -0.0878
    107  N         22.4110   14.5440   23.7280 N.3   214  GLY214     -0.1210
    108  CA        21.6430   15.6800   23.2530 C.3   214  GLY214      0.1956
    109  C         22.5110   16.8940   22.9770 C.2   214  GLY214      0.2612
    110  O         23.7220   16.8660   23.1910 O.2   214  GLY214     -0.2717
    111  N         21.8910   17.9540   22.4690 N.am  215  GLY215     -0.1942
    112  CA        22.6170   19.1860   22.2080 C.3   215  GLY215      0.2014
    113  C         23.5310   19.2400   20.9990 C.2   215  GLY215      0.2639
    114  O         24.2800   20.2040   20.8350 O.2   215  GLY215     -0.2714
    115  N         23.4980   18.2160   20.1570 N.am  216  LEU216     -0.1963
    116  CA        24.3320   18.2290   18.9670 C.3   216  LEU216      0.1728
    117  C         23.4180   18.3790   17.7610 C.2   216  LEU216      0.2616
    118  O         22.2000   18.4330   17.9110 O.2   216  LEU216     -0.2715
    119  CB        25.1740   16.9530   18.8780 C.3   216  LEU216      0.0311
    120  CG        26.2200   16.7970   19.9900 C.3   216  LEU216      0.0022
    121  CD1       26.9930   15.4920   19.7920 C.3   216  LEU216      0.0001
    122  CD2       27.1760   17.9870   19.9800 C.3   216  LEU216      0.0001
    123  N         23.9910   18.4560   16.5670 N.am  217  ALA217     -0.1963
    124  CA        23.1730   18.6340   15.3750 C.3   217  ALA217      0.1728
    125  C         22.4120   19.9490   15.5450 C.2   217  ALA217      0.2616
    126  O         21.2030   20.0260   15.3180 O.2   217  ALA217     -0.2715
    127  CB        22.1970   17.4730   15.2240 C.3   217  ALA217      0.0334
    128  N         23.1400   20.9790   15.9620 N.am  218  VAL218     -0.1977
    129  CA        22.5710   22.3060   16.1710 C.3   218  VAL218      0.1596
    130  C         23.3430   23.3450   15.3650 C.2   218  VAL218      0.2287
    131  O         23.3370   24.5300   15.6990 O.2   218  VAL218     -0.2864
    132  CB        22.6150   22.7030   17.6600 C.3   218  VAL218      0.0276
    133  CG1       21.6580   21.8340   18.4600 C.3   218  VAL218      0.0022
    134  CG2       24.0290   22.5490   18.1930 C.3   218  VAL218      0.0022
    135  N         21.6910    6.9300   22.1390 N.3   243  TYR243     -0.1241
    136  CA        20.8410    7.5570   21.1330 C.3   243  TYR243      0.1605
    137  C         21.2520    8.9870   20.7870 C.2   243  TYR243      0.2264
    138  O         21.2430    9.8700   21.6410 O.2   243  TYR243     -0.2867
    139  CB        19.3950    7.4800   21.6540 C.3   243  TYR243      0.0534
    140  CG        18.3500    8.3410   20.9810 C.ar  243  TYR243     -0.0201
    141  CD1       18.3970    8.6240   19.6150 C.ar  243  TYR243     -0.0009
    142  CD2       17.2730    8.8400   21.7210 C.ar  243  TYR243     -0.0009
    143  CE1       17.3970    9.3860   19.0050 C.ar  243  TYR243      0.0417
    144  CE2       16.2700    9.5960   21.1250 C.ar  243  TYR243      0.0417
    145  CZ        16.3360    9.8670   19.7710 C.ar  243  TYR243      0.1957
    146  OH        15.3440   10.6220   19.1920 O.3   243  TYR243     -0.2866
    147  N         20.2290   12.1330   19.2230 N.3   245  MET245     -0.1230
    148  CA        19.0170   12.8310   18.8200 C.3   245  MET245      0.1702
    149  C         19.1650   13.7760   17.6280 C.2   245  MET245      0.2592
    150  O         20.1020   14.5650   17.5620 O.2   245  MET245     -0.2718
    151  CB        18.4640   13.6040   20.0200 C.3   245  MET245      0.0401
    152  CG        18.3330   12.7490   21.2770 C.3   245  MET245      0.0596
    153  SD        17.5340   13.6050   22.6540 S.3   245  MET245     -0.1393
    154  CE        15.8120   13.2200   22.3140 C.3   245  MET245      0.0692
    155  N         18.2290   13.6700   16.6870 N.am  246  GLY246     -0.1957
    156  CA        18.2210   14.5410   15.5230 C.3   246  GLY246      0.1869
    157  C         19.3000   14.3790   14.4710 C.2   246  GLY246      0.2309
    158  O         19.4590   15.2460   13.6160 O.2   246  GLY246     -0.2863
    159  N         17.4750    9.2740   14.5400 N.3   265  ASP265     -0.1239
    160  CA        16.1820    9.8000   14.1220 C.3   265  ASP265      0.1674
    161  C         16.4310   11.1570   13.4760 C.2   265  ASP265      0.2266
    162  O         17.3360   11.8880   13.8880 O.2   265  ASP265     -0.2867
    163  CB        15.2560   10.0230   15.3160 C.3   265  ASP265      0.1410
    164  CG        15.4590   11.3880   15.9590 C.2   265  ASP265      0.3668
    165  OD1       16.2700   11.5030   16.8990 O.co2 265  ASP265     -0.2456
    166  OD2       14.8170   12.3590   15.5030 O.co2 265  ASP265     -0.2456
@<TRIPOS>BOND
     1     4     3    2
     2     1     2    1
     3     3     2    1
     4     2     5    1
     5     5     7    1
     6     5     6    1
     7   161   162    2
     8   161   160    1
     9   158   157    2
    10   160   159    1
    11   160   163    1
    12   157   156    1
    13   127   124    1
    14   163   164    1
    15   126   125    2
    16   130   131    2
    17   130   129    1
    18   124   125    1
    19   124   123    1
    20   166   164   ar
    21   156   155    1
    22   125   128   am
    23    11    10    2
    24     8     9    1
    25    22    21    2
    26   164   165   ar
    27   128   129    1
    28   129   132    1
    29   123   117   am
    30    12     9    1
    31    12    13    1
    32   155   149   am
    33    20    21    1
    34    20    17    1
    35    10     9    1
    36    21    23   am
    37    80    79    2
    38    15    13    1
    39   150   149    2
    40   149   148    1
    41    14    13    1
    42   132   134    1
    43   132   133    1
    44    16    17    1
    45   117   118    2
    46   117   116    1
    47    17    18    1
    48    79    81   am
    49    79    78    1
    50    19    18    2
    51   148   147    1
    52   148   151    1
    53    40    38   ar
    54    40    41   ar
    55   119   116    1
    56   119   120    1
    57   116   115    1
    58    38    36   ar
    59   143   141   ar
    60   143   145   ar
    61    18    24   am
    62   146   145    1
    63   141   140   ar
    64    78    77    1
    65   145   144   ar
    66   121   120    1
    67    42    41    1
    68    76    75    2
    69    41    39   ar
    70    70    68   ar
    71    70    71   ar
    72    77    74    1
    73   122   120    1
    74   151   152    1
    75   115   113   am
    76    33    34    2
    77    33    32    1
    78    36    35    1
    79    36    37   ar
    80    72    71    1
    81    24    25    1
    82    74    75    1
    83    74    73    1
    84    35    32    1
    85    68    66   ar
    86   137   136    1
    87   137   138    2
    88    71    69   ar
    89   114   113    2
    90   140   139    1
    91   140   142   ar
    92   113   112    1
    93    32    31    1
    94    31    26   am
    95   144   142   ar
    96   136   139    1
    97   136   135    1
    98    39    37   ar
    99   152   153    1
   100    26    25    1
   101    26    27    2
   102    64    63    2
   103    25    28    1
   104    73    63   am
   105    49    48   ar
   106    47    48    1
   107    47    44    1
   108    63    62    1
   109    66    65    1
   110    66    67   ar
   111    69    67   ar
   112   112   111    1
   113    43    44    1
   114    48    50   ar
   115   154   153    1
   116   111   109   am
   117    65    62    1
   118    28    29    1
   119    28    30    1
   120    44    45    1
   121   109   110    2
   122   109   108    1
   123    62    61    1
   124   108   107    1
   125    60    59    2
   126    45    46    2
   127    45    51   am
   128    58    59    1
   129    58    57    1
   130    57    53   am
   131    51    52    1
   132    53    52    1
   133    53    54    2
   134   105   104    2
   135   106   104   am
   136    52    55    1
   137    96    94    1
   138    89    87   ar
   139    97    95    1
   140   104   103    1
   141    56    55    1
   142    88    87   ar
   143    95    94    1
   144    87    86    1
   145    94    91    1
   146    99   100    1
   147    99    98    1
   148    99   102    1
   149   103   102    1
   150    91    92    1
   151    91    90    1
   152   100   101    2
   153    85    84    2
   154    92    93    2
   155    86    83    1
   156    84    83    1
   157    82    83    1
