@<TRIPOS>MOLECULE
tmp/1q6fA00.pdb
 118 108 0 0 0
SMALL
GASTEIGER

@<TRIPOS>ATOM
      1  N         -3.7090   36.0590   15.4040 N.3    12  MET12      -0.1245
      2  CA        -2.8340   34.9050   15.2600 C.3    12  MET12       0.1570
      3  C         -3.4950   33.8500   14.3730 C.2    12  MET12       0.2261
      4  O         -4.6810   33.5480   14.5350 O.2    12  MET12      -0.2867
      5  CB        -2.5500   34.2780   16.6240 C.3    12  MET12       0.0387
      6  CG        -1.6380   35.0830   17.5100 C.3    12  MET12       0.0595
      7  SD        -1.2670   34.1800   19.0200 S.3    12  MET12      -0.1393
      8  CE        -0.8390   35.5400   20.1200 C.3    12  MET12       0.0692
      9  N          7.1000   35.1770   13.4760 N.3    84  ILE84      -0.1245
     10  CA         7.8350   34.7280   14.6510 C.3    84  ILE84       0.1561
     11  C          8.8970   33.7070   14.2740 C.2    84  ILE84       0.2260
     12  O          8.5980   32.7070   13.6170 O.2    84  ILE84      -0.2867
     13  CB         6.9070   34.0350   15.6830 C.3    84  ILE84       0.0252
     14  CG1        5.7030   34.9170   16.0110 C.3    84  ILE84       0.0019
     15  CG2        7.6840   33.7490   16.9540 C.3    84  ILE84       0.0019
     16  CD1        4.6390   34.2090   16.8520 C.3    84  ILE84       0.0001
     17  N          2.4830   23.2090   25.9730 N.3    93  ASN93      -0.1225
     18  CA         1.9270   24.3540   26.6810 C.3    93  ASN93       0.1785
     19  C          0.4280   24.5080   26.4360 C.2    93  ASN93       0.2597
     20  O         -0.1210   23.9010   25.5190 O.2    93  ASN93      -0.2718
     21  CB         2.6840   25.6250   26.2820 C.3    93  ASN93       0.1169
     22  CG         4.1360   25.6080   26.7560 C.2    93  ASN93       0.2627
     23  OD1        4.4060   25.5540   27.9570 O.2    93  ASN93      -0.2716
     24  ND2        5.0710   25.6460   25.8150 N.am   93  ASN93      -0.0877
     25  N         -0.2260   25.3200   27.2640 N.am   94  VAL94      -0.1980
     26  CA        -1.6690   25.5340   27.1700 C.3    94  VAL94       0.1595
     27  C         -2.1190   25.9700   25.7760 C.2    94  VAL94       0.2287
     28  O         -1.5830   26.9210   25.2050 O.2    94  VAL94      -0.2864
     29  CB        -2.1440   26.5880   28.2160 C.3    94  VAL94       0.0276
     30  CG1       -1.6000   27.9660   27.8630 C.3    94  VAL94       0.0022
     31  CG2       -3.6640   26.6110   28.2880 C.3    94  VAL94       0.0022
     32  N         -1.7460   24.3330   23.0080 N.3    96  ASP96      -0.1239
     33  CA        -1.0150   23.6400   21.9530 C.3    96  ASP96       0.1674
     34  C         -1.7560   22.3740   21.5350 C.2    96  ASP96       0.2266
     35  O         -1.6670   21.3440   22.1990 O.2    96  ASP96      -0.2867
     36  CB         0.3940   23.2700   22.4230 C.3    96  ASP96       0.1410
     37  CG         1.2800   24.4860   22.6470 C.2    96  ASP96       0.3668
     38  OD1        2.4520   24.2880   23.0270 O.co2  96  ASP96      -0.2456
     39  OD2        0.8140   25.6300   22.4440 O.co2  96  ASP96      -0.2456
     40  N          7.4790   28.5790   24.3570 N.3   179  ALA179     -0.1245
     41  CA         6.3640   29.3220   23.7860 C.3   179  ALA179      0.1562
     42  C          6.8490   30.6180   23.1460 C.2   179  ALA179      0.2260
     43  O          6.0740   31.5640   22.9830 O.2   179  ALA179     -0.2867
     44  CB         5.3210   29.6290   24.8640 C.3   179  ALA179      0.0290
     45  N          8.7200   32.8480   24.3700 N.3   181  GLU181     -0.1245
     46  CA         8.8980   33.9180   25.3430 C.3   181  GLU181      0.1567
     47  C         10.2650   33.8690   26.0470 C.2   181  GLU181      0.2260
     48  O         10.8340   32.7930   26.2540 O.2   181  GLU181     -0.2867
     49  CB         7.7700   33.8360   26.3830 C.3   181  GLU181      0.0388
     50  CG         6.3670   33.8370   25.7660 C.3   181  GLU181      0.1160
     51  CD         5.2780   33.4740   26.7630 C.2   181  GLU181      0.3649
     52  OE1        5.4670   32.4990   27.5140 O.co2 181  GLU181     -0.2457
     53  OE2        4.2280   34.1480   26.7860 O.co2 181  GLU181     -0.2457
     54  N          8.8100   38.5650   23.2660 N.3   290  LYS290     -0.1245
     55  CA         7.6450   38.3480   24.0940 C.3   290  LYS290      0.1561
     56  C          8.0330   38.0810   25.5400 C.2   290  LYS290      0.2260
     57  O          8.9410   37.2980   25.8140 O.2   290  LYS290     -0.2867
     58  CB         6.8340   37.1740   23.5460 C.3   290  LYS290      0.0271
     59  CG         6.3270   37.3790   22.1340 C.3   290  LYS290      0.0035
     60  CD         5.2510   36.3540   21.8040 C.3   290  LYS290      0.0206
     61  CE         4.6490   36.6030   20.4350 C.3   290  LYS290      0.1093
     62  NZ         3.5270   35.6670   20.1560 N.3   290  LYS290     -0.1314
     63  N          2.3500   39.2780   26.8680 N.3   337  THR337     -0.1218
     64  CA         1.3180   38.3020   26.5000 C.3   337  THR337      0.1862
     65  C          0.1590   38.0080   27.4660 C.2   337  THR337      0.2287
     66  O         -0.2560   36.8560   27.5870 O.2   337  THR337     -0.2866
     67  CB         1.9680   36.9440   26.1470 C.3   337  THR337      0.1770
     68  OG1        2.4950   36.3430   27.3360 O.3   337  THR337     -0.2211
     69  CG2        3.0980   37.1350   25.1480 C.3   337  THR337      0.0375
     70  N         -0.8070   40.9030   23.7910 N.3   375  GLU375     -0.1231
     71  CA        -1.7600   39.8840   23.3520 C.3   375  GLU375      0.1699
     72  C         -2.5660   39.4100   24.5540 C.2   375  GLU375      0.2592
     73  O         -2.1670   39.6200   25.7010 O.2   375  GLU375     -0.2718
     74  CB        -1.0530   38.6530   22.7690 C.3   375  GLU375      0.0402
     75  CG         0.4050   38.8230   22.4650 C.3   375  GLU375      0.1161
     76  CD         1.0530   37.5300   22.0100 C.2   375  GLU375      0.3649
     77  OE1        0.9140   36.5130   22.7210 O.co2 375  GLU375     -0.2457
     78  OE2        1.7040   37.5330   20.9460 O.co2 375  GLU375     -0.2457
     79  N         -3.7020   38.7770   24.2860 N.am  376  ASN376     -0.1960
     80  CA        -4.5240   38.2330   25.3540 C.3   376  ASN376      0.1819
     81  C         -3.8880   36.8800   25.6320 C.2   376  ASN376      0.2621
     82  O         -3.3760   36.2330   24.7180 O.2   376  ASN376     -0.2715
     83  CB        -5.9860   38.0670   24.9000 C.3   376  ASN376      0.1195
     84  CG        -6.1150   37.2770   23.6090 C.2   376  ASN376      0.2630
     85  OD1       -5.5950   37.6800   22.5690 O.2   376  ASN376     -0.2716
     86  ND2       -6.8100   36.1470   23.6710 N.am  376  ASN376     -0.0877
     87  N         -3.9000   36.4650   26.8920 N.am  377  ALA377     -0.1963
     88  CA        -3.3070   35.1920   27.2760 C.3   377  ALA377      0.1728
     89  C         -4.1990   33.9980   26.9550 C.2   377  ALA377      0.2616
     90  O         -3.7200   32.9790   26.4650 O.2   377  ALA377     -0.2715
     91  CB        -2.9770   35.2050   28.7660 C.3   377  ALA377      0.0334
     92  N         -5.4940   34.1200   27.2300 N.am  378  LEU378     -0.1977
     93  CA        -6.4240   33.0190   26.9760 C.3   378  LEU378      0.1596
     94  C         -7.5370   33.4130   26.0140 C.2   378  LEU378      0.2287
     95  O         -7.8840   34.5870   25.8990 O.2   378  LEU378     -0.2864
     96  CB        -7.0490   32.5400   28.2910 C.3   378  LEU378      0.0297
     97  CG        -6.0880   32.0360   29.3720 C.3   378  LEU378      0.0022
     98  CD1       -6.8580   31.7290   30.6430 C.3   378  LEU378      0.0001
     99  CD2       -5.3650   30.7920   28.8780 C.3   378  LEU378      0.0001
    100  N         -5.4050   36.3700   20.1460 N.3   414  LEU414     -0.1231
    101  CA        -5.2750   34.9230   20.1030 C.3   414  LEU414      0.1693
    102  C         -6.6870   34.3590   20.2780 C.2   414  LEU414      0.2591
    103  O         -7.3470   34.6570   21.2700 O.2   414  LEU414     -0.2718
    104  CB        -4.3530   34.4610   21.2390 C.3   414  LEU414      0.0284
    105  CG        -4.0770   32.9670   21.4270 C.3   414  LEU414      0.0019
    106  CD1       -2.8110   32.7890   22.2540 C.3   414  LEU414      0.0001
    107  CD2       -5.2600   32.3010   22.1050 C.3   414  LEU414      0.0001
    108  N         -7.1780   33.5720   19.3250 N.am  415  ARG415     -0.1980
    109  CA        -6.4770   33.1860   18.1030 C.3   415  ARG415      0.1597
    110  C         -7.5550   33.0280   17.0260 C.2   415  ARG415      0.2287
    111  O         -8.7450   33.1190   17.3230 O.2   415  ARG415     -0.2864
    112  CB        -5.7720   31.8420   18.3260 C.3   415  ARG415      0.0334
    113  CG        -5.0410   31.2740   17.1220 C.3   415  ARG415      0.0492
    114  CD        -4.5210   29.8720   17.4320 C.3   415  ARG415      0.2205
    115  NE        -3.6410   29.8600   18.5990 N.pl3 415  ARG415     -0.0865
    116  CZ        -2.3940   30.3240   18.6040 C.cat 415  ARG415      0.5346
    117  NH1       -1.8660   30.8370   17.5000 N.pl3 415  ARG415      0.1354
    118  NH2       -1.6730   30.2760   19.7140 N.pl3 415  ARG415      0.1354
@<TRIPOS>BOND
     1     9    10    1
     2    12    11    2
     3    11    10    1
     4     3     4    2
     5     3     2    1
     6    10    13    1
     7     2     1    1
     8     2     5    1
     9    13    14    1
    10    13    15    1
    11    14    16    1
    12     5     6    1
    13   110   111    2
    14   110   109    1
    15   113   114    1
    16   113   112    1
    17   114   115    1
    18   117   116    1
    19     6     7    1
    20   109   112    1
    21   109   108    1
    22   115   116    2
    23   116   118    1
    24     7     8    1
    25   108   102   am
    26   101   100    1
    27   101   102    1
    28   101   104    1
    29    62    61    1
    30   102   103    2
    31    61    60    1
    32    78    76   ar
    33   104   105    1
    34   105   107    1
    35   105   106    1
    36    34    33    1
    37    34    35    2
    38    60    59    1
    39    33    36    1
    40    33    32    1
    41    76    75    1
    42    76    77   ar
    43    59    58    1
    44    36    37    1
    45    39    37   ar
    46    75    74    1
    47    85    84    2
    48    37    38   ar
    49    74    71    1
    50    43    42    2
    51    42    41    1
    52    54    55    1
    53    71    70    1
    54    71    72    1
    55    58    55    1
    56    84    86   am
    57    84    83    1
    58    41    40    1
    59    41    44    1
    60    55    56    1
    61    79    72   am
    62    79    80    1
    63    45    46    1
    64    72    73    2
    65    82    81    2
    66    83    80    1
    67    69    67    1
    68    28    27    2
    69    46    47    1
    70    46    49    1
    71    80    81    1
    72    20    19    2
    73    56    57    2
    74    81    87   am
    75    50    49    1
    76    50    51    1
    77    27    26    1
    78    24    22   am
    79    95    94    2
    80    17    18    1
    81    94    93    1
    82    47    48    2
    83    67    64    1
    84    67    68    1
    85    21    18    1
    86    21    22    1
    87    19    18    1
    88    19    25   am
    89    90    89    2
    90    64    63    1
    91    64    65    1
    92    22    23    2
    93    51    53   ar
    94    51    52   ar
    95    87    88    1
    96    89    92   am
    97    89    88    1
    98    93    92    1
    99    93    96    1
   100    26    25    1
   101    26    29    1
   102    88    91    1
   103    65    66    2
   104    30    29    1
   105    29    31    1
   106    96    97    1
   107    99    97    1
   108    97    98    1
