@<TRIPOS>MOLECULE
tmp/1q6iB00.pdb
 151 149 0 0 0
SMALL
GASTEIGER

@<TRIPOS>ATOM
      1  N        -32.4460   32.7240   64.0040 N.3   130  TYR130     -0.1241
      2  CA       -31.4670   33.0260   65.0260 C.3   130  TYR130      0.1605
      3  C        -31.0470   34.4570   65.0560 C.2   130  TYR130      0.2264
      4  O        -31.2750   35.2240   64.1330 O.2   130  TYR130     -0.2867
      5  CB       -30.2240   32.1620   64.9000 C.3   130  TYR130      0.0534
      6  CG       -29.4090   32.4620   63.6750 C.ar  130  TYR130     -0.0201
      7  CD1      -29.6640   31.8080   62.4910 C.ar  130  TYR130     -0.0009
      8  CD2      -28.3700   33.3740   63.7100 C.ar  130  TYR130     -0.0009
      9  CE1      -28.9190   32.0510   61.3860 C.ar  130  TYR130      0.0417
     10  CE2      -27.6040   33.6220   62.5800 C.ar  130  TYR130      0.0417
     11  CZ       -27.9000   32.9690   61.4230 C.ar  130  TYR130      0.1957
     12  OH       -27.1930   33.2060   60.2870 O.3   130  TYR130     -0.2866
     13  N        -24.2740   40.7510   65.2710 N.3   140  PHE140     -0.1227
     14  CA       -23.4990   40.4880   64.0660 C.3   140  PHE140      0.1736
     15  C        -24.2930   39.7310   63.0170 C.2   140  PHE140      0.2595
     16  O        -23.8980   39.6830   61.8570 O.2   140  PHE140     -0.2718
     17  CB       -22.1930   39.7420   64.3550 C.3   140  PHE140      0.0547
     18  CG       -22.3760   38.3970   64.9980 C.ar  140  PHE140     -0.0202
     19  CD1      -22.7220   37.2750   64.2440 C.ar  140  PHE140     -0.0042
     20  CD2      -22.1600   38.2480   66.3580 C.ar  140  PHE140     -0.0042
     21  CE1      -22.8830   36.0300   64.8470 C.ar  140  PHE140     -0.0003
     22  CE2      -22.3090   37.0280   66.9700 C.ar  140  PHE140     -0.0003
     23  CZ       -22.6800   35.9020   66.2210 C.ar  140  PHE140     -0.0000
     24  N        -25.4100   39.1430   63.4110 N.am  141  ASP141     -0.1974
     25  CA       -26.1850   38.3630   62.4620 C.3   141  ASP141      0.1709
     26  C        -27.5850   38.1910   63.0120 C.2   141  ASP141      0.2293
     27  O        -27.7820   38.1700   64.2420 O.2   141  ASP141     -0.2864
     28  CB       -25.5180   37.0030   62.1770 C.3   141  ASP141      0.1436
     29  CG       -25.9850   36.3790   60.8530 C.2   141  ASP141      0.3671
     30  OD1      -26.7990   36.9590   60.1250 O.co2 141  ASP141     -0.2456
     31  OD2      -25.4550   35.2090   60.5350 O.co2 141  ASP141     -0.2456
     32  N        -32.6660   39.1800   57.7510 N.3   146  ARG146     -0.1245
     33  CA       -32.1120   38.6600   56.5100 C.3   146  ARG146      0.1563
     34  C        -33.2470   38.2280   55.6340 C.2   146  ARG146      0.2260
     35  O        -33.1510   38.3490   54.4230 O.2   146  ARG146     -0.2867
     36  CB       -31.1810   37.4930   56.8000 C.3   146  ARG146      0.0307
     37  CG       -31.0960   36.3940   55.7340 C.3   146  ARG146      0.0489
     38  CD       -29.8530   35.5510   55.9310 C.3   146  ARG146      0.2205
     39  NE       -28.8140   36.4340   56.4530 N.pl3 146  ARG146     -0.0865
     40  CZ       -28.2600   36.3440   57.6600 C.cat 146  ARG146      0.5346
     41  NH1      -28.5770   35.3580   58.4960 N.pl3 146  ARG146      0.1354
     42  NH2      -27.3470   37.2480   58.0180 N.pl3 146  ARG146      0.1354
     43  N        -33.2080   29.7830   57.9110 N.3   150  LEU150     -0.1245
     44  CA       -32.1020   29.1200   57.2570 C.3   150  LEU150      0.1561
     45  C        -31.9620   27.6270   57.6280 C.2   150  LEU150      0.2260
     46  O        -32.1750   27.2130   58.7660 O.2   150  LEU150     -0.2867
     47  CB       -30.8220   29.8970   57.5650 C.3   150  LEU150      0.0270
     48  CG       -31.0260   31.3810   57.2010 C.3   150  LEU150      0.0019
     49  CD1      -29.8570   32.2630   57.6530 C.3   150  LEU150      0.0001
     50  CD2      -31.2420   31.5480   55.7360 C.3   150  LEU150      0.0001
     51  N        -29.5080   24.0790   57.5000 N.3   152  PHE152     -0.1241
     52  CA       -28.1700   23.5350   57.3680 C.3   152  PHE152      0.1605
     53  C        -28.0290   22.2020   58.0360 C.2   152  PHE152      0.2264
     54  O        -28.8220   21.8240   58.9140 O.2   152  PHE152     -0.2867
     55  CB       -27.1360   24.4620   57.9480 C.3   152  PHE152      0.0534
     56  CG       -27.5770   25.1230   59.1510 C.ar  152  PHE152     -0.0203
     57  CD1      -27.6310   24.4460   60.3270 C.ar  152  PHE152     -0.0042
     58  CD2      -27.9770   26.4380   59.0980 C.ar  152  PHE152     -0.0042
     59  CE1      -28.0780   25.0900   61.4740 C.ar  152  PHE152     -0.0003
     60  CE2      -28.4190   27.0830   60.1910 C.ar  152  PHE152     -0.0003
     61  CZ       -28.4740   26.4140   61.3870 C.ar  152  PHE152     -0.0000
     62  N        -22.3940   20.7580   59.6910 N.3   156  GLY156     -0.1210
     63  CA       -21.7790   21.7500   58.8150 C.3   156  GLY156      0.1956
     64  C        -21.5460   23.1060   59.4960 C.2   156  GLY156      0.2612
     65  O        -20.9550   24.0090   58.9080 O.2   156  GLY156     -0.2717
     66  N        -21.9760   23.2530   60.7500 N.am  157  VAL157     -0.1965
     67  CA       -21.8470   24.5290   61.4370 C.3   157  VAL157      0.1727
     68  C        -20.8040   24.4390   62.5460 C.2   157  VAL157      0.2616
     69  O        -20.2190   23.3830   62.7600 O.2   157  VAL157     -0.2715
     70  CB       -23.2200   24.9660   62.0280 C.3   157  VAL157      0.0290
     71  CG1      -24.1620   25.3560   60.8750 C.3   157  VAL157      0.0023
     72  CG2      -23.8320   23.8350   62.9220 C.3   157  VAL157      0.0023
     73  N        -20.5700   25.5460   63.2420 N.am  158  ILE158     -0.1964
     74  CA       -19.5950   25.5250   64.3130 C.3   158  ILE158      0.1712
     75  C        -19.9910   24.5530   65.4310 C.2   158  ILE158      0.2458
     76  O        -21.1840   24.3190   65.7030 O.2   158  ILE158     -0.2730
     77  CB       -19.3030   26.9430   64.8690 C.3   158  ILE158      0.0289
     78  CG1      -20.5750   27.6640   65.2220 C.3   158  ILE158      0.0022
     79  CG2      -18.5420   27.7490   63.8670 C.3   158  ILE158      0.0023
     80  CD1      -20.3160   28.8060   66.1160 C.3   158  ILE158      0.0001
     81  N        -18.9780   23.9580   66.0380 N.am  159  PRO159     -0.2727
     82  CA       -19.1780   23.0000   67.1330 C.3   159  PRO159      0.1402
     83  C        -20.1250   23.4700   68.2410 C.2   159  PRO159      0.2269
     84  O        -20.9430   22.6580   68.6950 O.2   159  PRO159     -0.2865
     85  CB       -17.7750   22.7560   67.6550 C.3   159  PRO159      0.0296
     86  CG       -16.8220   23.0830   66.4690 C.3   159  PRO159      0.0237
     87  CD       -17.5410   24.1430   65.7000 C.3   159  PRO159      0.0939
     88  N        -22.7080   25.0850   67.9080 N.3   161  TRP161     -0.1241
     89  CA       -24.0610   24.7940   67.3950 C.3   161  TRP161      0.1605
     90  C        -24.3720   23.3330   67.2430 C.2   161  TRP161      0.2264
     91  O        -25.4530   22.9190   67.5630 O.2   161  TRP161     -0.2867
     92  CB       -24.2810   25.4390   66.0200 C.3   161  TRP161      0.0550
     93  CG       -24.6950   26.8420   66.1010 C.ar  161  TRP161      0.0003
     94  CD1      -23.9970   27.8760   66.6480 C.ar  161  TRP161      0.0946
     95  CD2      -25.8940   27.3960   65.5820 C.ar  161  TRP161      0.0152
     96  NE1      -24.7020   29.0480   66.5030 N.ar  161  TRP161     -0.2442
     97  CE2      -25.8720   28.7780   65.8510 C.ar  161  TRP161      0.0810
     98  CE3      -26.9820   26.8680   64.9040 C.ar  161  TRP161      0.0012
     99  CZ2      -26.9060   29.6330   65.4730 C.ar  161  TRP161      0.0191
    100  CZ3      -28.0050   27.7170   64.5310 C.ar  161  TRP161      0.0001
    101  CH2      -27.9610   29.0820   64.8180 C.ar  161  TRP161      0.0015
    102  N        -16.1290   28.1140   68.4230 N.3   183  ALA183     -0.1231
    103  CA       -16.6210   29.0020   67.3900 C.3   183  ALA183      0.1694
    104  C        -15.5010   29.3780   66.4330 C.2   183  ALA183      0.2592
    105  O        -14.9140   28.5050   65.8130 O.2   183  ALA183     -0.2718
    106  CB       -17.2680   30.2360   68.0210 C.3   183  ALA183      0.0304
    107  N        -15.1450   30.6570   66.3580 N.am  184  TYR184     -0.1976
    108  CA       -14.1640   31.0870   65.3740 C.3   184  TYR184      0.1639
    109  C        -12.7210   31.2980   65.8950 C.2   184  TYR184      0.2290
    110  O        -11.8670   31.7830   65.1800 O.2   184  TYR184     -0.2864
    111  CB       -14.7310   32.3000   64.6430 C.3   184  TYR184      0.0560
    112  CG       -16.0370   31.9690   63.9470 C.ar  184  TYR184     -0.0198
    113  CD1      -16.0570   31.2150   62.7820 C.ar  184  TYR184     -0.0009
    114  CD2      -17.2410   32.3870   64.4700 C.ar  184  TYR184     -0.0009
    115  CE1      -17.2250   30.9010   62.1690 C.ar  184  TYR184      0.0417
    116  CE2      -18.4170   32.0710   63.8740 C.ar  184  TYR184      0.0417
    117  CZ       -18.4100   31.3210   62.7180 C.ar  184  TYR184      0.1957
    118  OH       -19.6220   31.0100   62.1090 O.3   184  TYR184     -0.2866
    119  N        -13.5520   35.7530   62.2480 N.3   189  VAL189     -0.1231
    120  CA       -13.9330   35.8720   60.8370 C.3   189  VAL189      0.1678
    121  C        -14.4720   37.2810   60.6860 C.2   189  VAL189      0.2434
    122  O        -14.8110   37.9190   61.6830 O.2   189  VAL189     -0.2733
    123  CB       -15.0320   34.8820   60.4020 C.3   189  VAL189      0.0265
    124  CG1      -14.4690   33.4890   60.1600 C.3   189  VAL189      0.0020
    125  CG2      -16.1400   34.8410   61.4130 C.3   189  VAL189      0.0020
    126  N        -14.5510   37.7920   59.4720 N.am  190  PRO190     -0.2729
    127  CA       -15.0880   39.1370   59.2820 C.3   190  PRO190      0.1401
    128  C        -16.3650   39.3110   60.0950 C.2   190  PRO190      0.2269
    129  O        -17.2500   38.4540   60.0650 O.2   190  PRO190     -0.2865
    130  CB       -15.3470   39.1950   57.7760 C.3   190  PRO190      0.0296
    131  CG       -14.2830   38.3040   57.2030 C.3   190  PRO190      0.0237
    132  CD       -14.1360   37.1710   58.2020 C.3   190  PRO190      0.0939
    133  N        -16.4570   39.0890   63.2460 N.3   192  ILE192     -0.1245
    134  CA       -16.1970   38.4950   64.5400 C.3   192  ILE192      0.1561
    135  C        -14.7410   38.5790   64.9470 C.2   192  ILE192      0.2260
    136  O        -13.8730   37.9020   64.3920 O.2   192  ILE192     -0.2867
    137  CB       -16.6540   37.0750   64.5720 C.3   192  ILE192      0.0252
    138  CG1      -18.1400   37.0480   64.2270 C.3   192  ILE192      0.0019
    139  CG2      -16.3620   36.4650   65.9850 C.3   192  ILE192      0.0019
    140  CD1      -18.7140   35.7430   64.2180 C.3   192  ILE192      0.0001
    141  N        -26.0760   33.3830   70.9700 N.3   200  PHE200     -0.1241
    142  CA       -27.0970   33.1510   69.9540 C.3   200  PHE200      0.1605
    143  C        -28.4180   32.8130   70.5980 C.2   200  PHE200      0.2264
    144  O        -28.4630   31.9640   71.5040 O.2   200  PHE200     -0.2867
    145  CB       -26.7590   31.9310   69.1090 C.3   200  PHE200      0.0534
    146  CG       -25.6290   32.1170   68.1550 C.ar  200  PHE200     -0.0203
    147  CD1      -25.8750   32.5060   66.8570 C.ar  200  PHE200     -0.0042
    148  CD2      -24.3390   31.8080   68.5300 C.ar  200  PHE200     -0.0042
    149  CE1      -24.8410   32.6250   65.9750 C.ar  200  PHE200     -0.0003
    150  CE2      -23.3230   31.9110   67.6680 C.ar  200  PHE200     -0.0003
    151  CZ       -23.5460   32.3140   66.3990 C.ar  200  PHE200     -0.0000
@<TRIPOS>BOND
     1    35    34    2
     2    34    33    1
     3    37    38    1
     4    37    36    1
     5    50    48    1
     6    38    39    1
     7    39    40    2
     8    33    36    1
     9    33    32    1
    10    48    47    1
    11    48    49    1
    12   131   130    1
    13   131   132    1
    14    44    47    1
    15    44    45    1
    16    44    43    1
    17    52    51    1
    18    52    55    1
    19    52    53    1
    20    45    46    2
    21    40    42    1
    22    40    41    1
    23   130   127    1
    24    55    56    1
    25    53    54    2
    26   132   126    1
    27    63    64    1
    28    63    62    1
    29    65    64    2
    30    58    56   ar
    31    58    60   ar
    32    56    57   ar
    33   127   126    1
    34   127   128    1
    35   126   121   am
    36    64    66   am
    37   129   128    2
    38    30    29   ar
    39   124   123    1
    40    60    61   ar
    41    12    11    1
    42    57    59   ar
    43   123   120    1
    44   123   125    1
    45    31    29   ar
    46   121   120    1
    47   121   122    2
    48    66    67    1
    49   120   119    1
    50    29    28    1
    51    71    70    1
    52     9    11   ar
    53     9     7   ar
    54    61    59   ar
    55    11    10   ar
    56    67    70    1
    57    67    68    1
    58    16    15    2
    59    70    72    1
    60   118   117    1
    61   115   117   ar
    62   115   113   ar
    63    28    25    1
    64    25    26    1
    65    25    24    1
    66     7     6   ar
    67    68    69    2
    68    68    73   am
    69    10     8   ar
    70   117   116   ar
    71   113   112   ar
    72    26    27    2
    73    15    24   am
    74    15    14    1
    75    73    74    1
    76   133   134    1
    77     6     8   ar
    78     6     5    1
    79    79    77    1
    80   116   114   ar
    81   112   114   ar
    82   112   111    1
    83     1     2    1
    84    14    17    1
    85    14    13    1
    86     4     3    2
    87   140   138    1
    88   138   137    1
    89    19    21   ar
    90    19    18   ar
    91    74    77    1
    92    74    75    1
    93    17    18    1
    94   136   135    2
    95   100   101   ar
    96   100    98   ar
    97   134   137    1
    98   134   135    1
    99   137   139    1
   100   111   108    1
   101   101    99   ar
   102    21    23   ar
   103    77    78    1
   104     5     2    1
   105    98    95   ar
   106    18    20   ar
   107     2     3    1
   108   110   109    2
   109    78    80    1
   110   108   109    1
   111   108   107    1
   112    75    76    2
   113    75    81   am
   114    99    97   ar
   115    95    97   ar
   116    95    93   ar
   117    87    81    1
   118    87    86    1
   119   105   104    2
   120    97    96   ar
   121   149   151   ar
   122   149   147   ar
   123    92    93    1
   124    92    89    1
   125    81    82    1
   126    93    94   ar
   127    23    22   ar
   128   107   104   am
   129    20    22   ar
   130   151   150   ar
   131   104   103    1
   132    86    85    1
   133    96    94   ar
   134   147   146   ar
   135    82    85    1
   136    82    83    1
   137    90    89    1
   138    90    91    2
   139   103   106    1
   140   103   102    1
   141    89    88    1
   142   150   148   ar
   143   146   148   ar
   144   146   145    1
   145    83    84    2
   146   145   142    1
   147   142   143    1
   148   142   141    1
   149   143   144    2
