@<TRIPOS>MOLECULE
tmp/1q6jA00.pdb
 163 155 0 0 0
SMALL
GASTEIGER

@<TRIPOS>ATOM
      1  N        -10.0120   82.7320   62.5410 N.3    28  ARG28      -0.1245
      2  CA        -9.9840   81.4130   63.1030 C.3    28  ARG28       0.1563
      3  C        -11.2940   80.9090   63.6690 C.2    28  ARG28       0.2260
      4  O        -11.5650   79.7070   63.5780 O.2    28  ARG28      -0.2867
      5  CB        -8.7930   81.2400   64.0840 C.3    28  ARG28       0.0307
      6  CG        -8.6580   82.1700   65.2470 C.3    28  ARG28       0.0489
      7  CD        -7.4450   81.7800   66.1140 C.3    28  ARG28       0.2205
      8  NE        -7.5810   80.3960   66.5850 N.pl3  28  ARG28      -0.0865
      9  CZ        -8.0860   80.0240   67.7610 C.cat  28  ARG28       0.5346
     10  NH1       -8.5020   80.9310   68.6530 N.pl3  28  ARG28       0.1354
     11  NH2       -8.2490   78.7260   68.0140 N.pl3  28  ARG28       0.1354
     12  N          1.1760   65.2690   68.2030 N.3    50  TYR50      -0.1227
     13  CA         0.3860   66.0520   69.1330 C.3    50  TYR50       0.1736
     14  C         -1.0470   65.5990   69.2860 C.2    50  TYR50       0.2595
     15  O         -1.7500   65.4300   68.3140 O.2    50  TYR50      -0.2718
     16  CB         0.3970   67.5320   68.7070 C.3    50  TYR50       0.0548
     17  CG         1.7670   68.1530   68.7260 C.ar   50  TYR50      -0.0200
     18  CD1        2.5080   68.2140   69.9130 C.ar   50  TYR50      -0.0009
     19  CD2        2.3370   68.6690   67.5640 C.ar   50  TYR50      -0.0009
     20  CE1        3.7680   68.7670   69.9400 C.ar   50  TYR50       0.0417
     21  CE2        3.6010   69.2250   67.5850 C.ar   50  TYR50       0.0417
     22  CZ         4.3160   69.2760   68.7740 C.ar   50  TYR50       0.1957
     23  OH         5.5760   69.8590   68.8010 O.3    50  TYR50      -0.2866
     24  N         -1.4890   65.4550   70.5300 N.am   51  ARG51      -0.1966
     25  CA        -2.8570   65.0310   70.8020 C.3    51  ARG51       0.1729
     26  C         -3.9530   65.8060   70.0730 C.2    51  ARG51       0.2616
     27  O         -4.8910   65.1970   69.5560 O.2    51  ARG51      -0.2715
     28  CB        -3.1300   65.1100   72.2980 C.3    51  ARG51       0.0348
     29  CG        -4.4800   64.5020   72.7380 C.3    51  ARG51       0.0492
     30  CD        -4.8150   64.9930   74.1700 C.3    51  ARG51       0.2205
     31  NE        -5.2880   66.3840   74.1490 N.pl3  51  ARG51      -0.0865
     32  CZ        -5.2020   67.2170   75.1800 C.cat  51  ARG51       0.5346
     33  NH1       -4.6620   66.8120   76.3220 N.pl3  51  ARG51       0.1354
     34  NH2       -5.6290   68.4670   75.0600 N.pl3  51  ARG51       0.1354
     35  N         -3.8410   67.1340   70.0070 N.am   52  ASP52      -0.1957
     36  CA        -4.9000   67.9040   69.3760 C.3    52  ASP52       0.1840
     37  C         -4.7000   68.3880   67.9420 C.2    52  ASP52       0.2621
     38  O         -5.4750   69.2090   67.4500 O.2    52  ASP52      -0.2715
     39  CB        -5.2960   69.1000   70.2660 C.3    52  ASP52       0.1450
     40  CG        -5.8140   68.6670   71.6320 C.2    52  ASP52       0.3671
     41  OD1       -6.1800   67.4880   71.7810 O.co2  52  ASP52      -0.2456
     42  OD2       -5.8670   69.4930   72.5620 O.co2  52  ASP52      -0.2456
     43  N         -3.6530   67.9370   67.2820 N.am   53  VAL53      -0.1977
     44  CA        -3.4520   68.3210   65.8950 C.3    53  VAL53       0.1596
     45  C         -3.6020   67.0260   65.0680 C.2    53  VAL53       0.2287
     46  O         -2.7850   66.0880   65.1620 O.2    53  VAL53      -0.2864
     47  CB        -2.0570   68.9360   65.6430 C.3    53  VAL53       0.0276
     48  CG1       -1.8900   69.1740   64.1230 C.3    53  VAL53       0.0022
     49  CG2       -1.9110   70.2890   66.4530 C.3    53  VAL53       0.0022
     50  N          8.8910   69.8750   73.9850 N.3   122  SER122     -0.1202
     51  CA         7.5310   69.4740   73.6260 C.3   122  SER122      0.2020
     52  C          7.2660   69.8830   72.1750 C.2   122  SER122      0.2618
     53  O          6.2210   69.5510   71.6150 O.2   122  SER122     -0.2717
     54  CB         6.4900   70.1080   74.5650 C.3   122  SER122      0.2103
     55  OG         6.4180   71.5090   74.3940 O.3   122  SER122     -0.2182
     56  N          8.2320   70.5910   71.5840 N.am  123  LEU123     -0.1979
     57  CA         8.1830   71.0650   70.1880 C.3   123  LEU123      0.1596
     58  C          9.4320   70.5130   69.4740 C.2   123  LEU123      0.2287
     59  O         10.4030   71.2500   69.2490 O.2   123  LEU123     -0.2864
     60  CB         8.2230   72.5970   70.1460 C.3   123  LEU123      0.0297
     61  CG         7.2430   73.3320   71.0610 C.3   123  LEU123      0.0022
     62  CD1        7.7540   74.7360   71.3230 C.3   123  LEU123      0.0001
     63  CD2        5.8820   73.3830   70.4290 C.3   123  LEU123      0.0001
     64  N          9.1820   78.2030   66.8570 N.3   185  ASP185     -0.1225
     65  CA         7.8060   77.7510   66.9990 C.3   185  ASP185      0.1805
     66  C          6.9850   78.9600   67.4260 C.2   185  ASP185      0.2597
     67  O          7.4110   79.7350   68.2820 O.2   185  ASP185     -0.2718
     68  CB         7.7010   76.6590   68.0610 C.3   185  ASP185      0.1424
     69  CG         8.3100   77.0820   69.3740 C.2   185  ASP185      0.3668
     70  OD1        9.5500   77.2880   69.4100 O.co2 185  ASP185     -0.2456
     71  OD2        7.5540   77.2300   70.3600 O.co2 185  ASP185     -0.2456
     72  N          5.8260   79.1300   66.7940 N.am  186  PHE186     -0.1976
     73  CA         4.9260   80.2440   67.0930 C.3   186  PHE186      0.1639
     74  C          5.5590   81.6190   66.8180 C.2   186  PHE186      0.2290
     75  O          5.0480   82.6510   67.2410 O.2   186  PHE186     -0.2864
     76  CB         4.4380   80.1380   68.5500 C.3   186  PHE186      0.0560
     77  CG         3.6360   78.8710   68.8360 C.ar  186  PHE186     -0.0200
     78  CD1        2.3530   78.7010   68.3050 C.ar  186  PHE186     -0.0042
     79  CD2        4.1850   77.8430   69.5950 C.ar  186  PHE186     -0.0042
     80  CE1        1.6280   77.5240   68.5280 C.ar  186  PHE186     -0.0003
     81  CE2        3.4740   76.6530   69.8260 C.ar  186  PHE186     -0.0003
     82  CZ         2.1860   76.4940   69.2910 C.ar  186  PHE186     -0.0000
     83  N          6.6890   71.3640   59.7230 N.3   219  CYS219     -0.1221
     84  CA         7.3660   72.1380   60.7600 C.3   219  CYS219      0.1808
     85  C          7.2760   71.1830   61.9400 C.2   219  CYS219      0.2602
     86  O          7.5880   70.0050   61.7840 O.2   219  CYS219     -0.2717
     87  CB         6.6390   73.4940   61.0100 C.3   219  CYS219      0.0970
     88  SG         4.7900   73.5620   60.9270 S.3   219  CYS219     -0.0800
     89  N          6.8480   71.6180   63.1140 N.am  220  SER220     -0.1938
     90  CA         6.7400   70.6240   64.1840 C.3   220  SER220      0.2055
     91  C          5.3470   69.9890   64.1150 C.2   220  SER220      0.2642
     92  O          5.2170   68.7560   63.9640 O.2   220  SER220     -0.2714
     93  CB         6.9730   71.2500   65.5740 C.3   220  SER220      0.2130
     94  OG         6.7280   70.2930   66.6120 O.3   220  SER220     -0.2179
     95  N          4.3010   70.8040   64.2050 N.am  221  ALA221     -0.1977
     96  CA         2.9260   70.2550   64.1500 C.3   221  ALA221      0.1597
     97  C          2.4080   70.2140   62.7160 C.2   221  ALA221      0.2287
     98  O          1.4520   69.5090   62.4060 O.2   221  ALA221     -0.2864
     99  CB         1.9390   71.0820   65.0270 C.3   221  ALA221      0.0319
    100  N          1.2920   72.9810   61.0870 N.3   223  ILE223     -0.1231
    101  CA         0.1880   73.9230   60.9280 C.3   223  ILE223      0.1692
    102  C          0.5250   75.4060   61.0370 C.2   223  ILE223      0.2593
    103  O         -0.0120   76.1920   60.2720 O.2   223  ILE223     -0.2718
    104  CB        -1.0250   73.6000   61.8920 C.3   223  ILE223      0.0266
    105  CG1       -0.6510   73.7800   63.3820 C.3   223  ILE223      0.0019
    106  CG2       -1.4790   72.1480   61.6410 C.3   223  ILE223      0.0020
    107  CD1       -1.8280   73.4290   64.3780 C.3   223  ILE223      0.0001
    108  N          1.4110   75.8000   61.9540 N.am  224  GLY224     -0.1942
    109  CA         1.7140   77.2300   62.0920 C.3   224  GLY224      0.2014
    110  C          2.6300   77.7900   61.0050 C.2   224  GLY224      0.2638
    111  O          2.2150   78.5760   60.1330 O.2   224  GLY224     -0.2714
    112  N          3.8990   77.4130   61.0290 N.am  225  ARG225     -0.1977
    113  CA         4.7620   77.9630   59.9760 C.3   225  ARG225      0.1597
    114  C          4.4950   77.3190   58.5940 C.2   225  ARG225      0.2287
    115  O          4.6070   77.9860   57.5740 O.2   225  ARG225     -0.2864
    116  CB         6.2420   77.9240   60.3990 C.3   225  ARG225      0.0334
    117  CG         6.5830   76.8030   61.2770 C.3   225  ARG225      0.0492
    118  CD         7.4860   77.1930   62.4880 C.3   225  ARG225      0.2205
    119  NE         7.2770   76.0780   63.4130 N.pl3 225  ARG225     -0.0865
    120  CZ         8.1760   75.5430   64.2140 C.cat 225  ARG225      0.5346
    121  NH1        9.4210   76.0200   64.2310 N.pl3 225  ARG225      0.1354
    122  NH2        7.8140   74.5120   64.9750 N.pl3 225  ARG225      0.1354
    123  N         -7.7780   76.2350   55.3700 N.3   258  ARG258     -0.1245
    124  CA        -8.1650   75.5510   56.6090 C.3   258  ARG258      0.1563
    125  C         -9.2590   74.4960   56.3930 C.2   258  ARG258      0.2260
    126  O         -9.5820   73.7320   57.3000 O.2   258  ARG258     -0.2867
    127  CB        -8.5850   76.5730   57.6710 C.3   258  ARG258      0.0307
    128  CG        -7.3920   77.0650   58.5290 C.3   258  ARG258      0.0489
    129  CD        -7.8440   78.0350   59.6130 C.3   258  ARG258      0.2205
    130  NE        -6.7420   78.5120   60.4530 N.pl3 258  ARG258     -0.0865
    131  CZ        -6.7340   78.4740   61.7830 C.cat 258  ARG258      0.5346
    132  NH1       -7.7740   77.9760   62.4460 N.pl3 258  ARG258      0.1354
    133  NH2       -5.6880   78.9500   62.4480 N.pl3 258  ARG258      0.1354
    134  N         -6.5820   71.6290   59.7890 N.3   262  MET262     -0.1230
    135  CA        -6.8270   72.5460   60.8840 C.3   262  MET262      0.1702
    136  C         -5.6450   73.3880   61.3810 C.2   262  MET262      0.2592
    137  O         -4.4810   73.0090   61.2600 O.2   262  MET262     -0.2718
    138  CB        -7.3480   71.7590   62.0840 C.3   262  MET262      0.0401
    139  CG        -6.2930   70.8440   62.6730 C.3   262  MET262      0.0596
    140  SD        -6.7000   69.9800   64.1820 S.3   262  MET262     -0.1393
    141  CE        -7.9600   68.8920   63.5770 C.3   262  MET262      0.0692
    142  N         -5.9880   74.5390   61.9430 N.am  263  GLY263     -0.1957
    143  CA        -5.0240   75.4110   62.5890 C.3   263  GLY263      0.1869
    144  C         -3.9420   76.1080   61.8100 C.2   263  GLY263      0.2309
    145  O         -3.0420   76.6650   62.4150 O.2   263  GLY263     -0.2863
    146  N         -0.7910   79.8930   63.2360 N.3   266  GLN266     -0.1245
    147  CA        -1.0730   79.8590   64.6570 C.3   266  GLN266      0.1566
    148  C         -1.1090   81.1210   65.4830 C.2   266  GLN266      0.2260
    149  O         -1.5350   81.0660   66.6390 O.2   266  GLN266     -0.2867
    150  CB        -0.1120   78.8740   65.2850 C.3   266  GLN266      0.0367
    151  CG        -0.5450   77.4410   65.1020 C.3   266  GLN266      0.0905
    152  CD        -1.8380   77.1860   65.8510 C.2   266  GLN266      0.2608
    153  OE1       -1.8380   77.1260   67.0940 O.2   266  GLN266     -0.2717
    154  NE2       -2.9490   77.0640   65.1080 N.am  266  GLN266     -0.0878
    155  N          1.9890   85.7510   62.7930 N.3   270  GLN270     -0.1245
    156  CA         2.2130   84.9660   61.5900 C.3   270  GLN270      0.1566
    157  C          1.2810   85.4370   60.4620 C.2   270  GLN270      0.2260
    158  O          1.6950   85.5090   59.3020 O.2   270  GLN270     -0.2867
    159  CB         2.0490   83.4650   61.8630 C.3   270  GLN270      0.0367
    160  CG         3.1830   82.8830   62.7190 C.3   270  GLN270      0.0905
    161  CD         2.9400   81.4380   63.1190 C.2   270  GLN270      0.2608
    162  OE1        1.8110   80.9580   63.0500 O.2   270  GLN270     -0.2717
    163  NE2        3.9960   80.7400   63.5570 N.am  270  GLN270     -0.0878
@<TRIPOS>BOND
     1   123   124    1
     2   125   124    1
     3   125   126    2
     4   124   127    1
     5   115   114    2
     6   127   128    1
     7   128   129    1
     8   114   113    1
     9   158   157    2
    10   129   130    1
    11    83    84    1
    12   134   135    1
    13   113   116    1
    14   113   112    1
    15   111   110    2
    16   103   102    2
    17   116   117    1
    18   130   131    2
    19   157   156    1
    20    84    87    1
    21    84    85    1
    22   135   136    1
    23   135   138    1
    24    88    87    1
    25   101   102    1
    26   101   100    1
    27   101   104    1
    28   110   112   am
    29   110   109    1
    30   102   108   am
    31   137   136    2
    32   117   118    1
    33   136   142   am
    34   156   159    1
    35   156   155    1
    36   106   104    1
    37   131   132    1
    38   131   133    1
    39    86    85    2
    40   144   145    2
    41   144   143    1
    42   159   160    1
    43   104   105    1
    44    85    89   am
    45   142   143    1
    46   108   109    1
    47   138   139    1
    48    98    97    2
    49   118   119    1
    50     1     2    1
    51   139   140    1
    52    97    96    1
    53   160   161    1
    54   162   161    2
    55     2     3    1
    56     2     5    1
    57    89    90    1
    58   161   163   am
    59   146   147    1
    60   105   107    1
    61   119   120    2
    62   141   140    1
    63     4     3    2
    64    92    91    2
    65     5     6    1
    66    91    90    1
    67    91    95   am
    68    48    47    1
    69    96    95    1
    70    96    99    1
    71    90    93    1
    72   120   121    1
    73   120   122    1
    74   147   150    1
    75   147   148    1
    76    45    46    2
    77    45    44    1
    78   151   150    1
    79   151   152    1
    80   154   152   am
    81     6     7    1
    82   148   149    2
    83    93    94    1
    84    47    44    1
    85    47    49    1
    86   152   153    2
    87    44    43    1
    88     7     8    1
    89     8     9    2
    90    72    73    1
    91    72    66   am
    92    74    73    1
    93    74    75    2
    94    64    65    1
    95    65    66    1
    96    65    68    1
    97    73    76    1
    98    43    37   am
    99    66    67    2
   100    38    37    2
   101    19    21   ar
   102    19    17   ar
   103    21    22   ar
   104     9    11    1
   105     9    10    1
   106    37    36    1
   107    68    69    1
   108    12    13    1
   109    78    80   ar
   110    78    77   ar
   111    15    14    2
   112    80    82   ar
   113    76    77    1
   114    16    17    1
   115    16    13    1
   116    17    18   ar
   117    22    23    1
   118    22    20   ar
   119    77    79   ar
   120    13    14    1
   121    59    58    2
   122    14    24   am
   123    82    81   ar
   124    69    70   ar
   125    69    71   ar
   126    36    35    1
   127    36    39    1
   128    58    57    1
   129    27    26    2
   130    79    81   ar
   131    18    20   ar
   132    35    26   am
   133    26    25    1
   134    60    57    1
   135    60    61    1
   136    57    56    1
   137    39    40    1
   138    63    61    1
   139    24    25    1
   140    25    28    1
   141    61    62    1
   142    56    52   am
   143    53    52    2
   144    40    41   ar
   145    40    42   ar
   146    52    51    1
   147    28    29    1
   148    29    30    1
   149    51    50    1
   150    51    54    1
   151    31    30    1
   152    31    32    2
   153    55    54    1
   154    34    32    1
   155    32    33    1
