@<TRIPOS>MOLECULE
tmp/1q6kA00.pdb
 115 112 0 0 0
SMALL
GASTEIGER

@<TRIPOS>ATOM
      1  N         85.1430  -12.1700  132.7180 N.3    19  GLN19      -0.1245
      2  CA        84.0490  -13.1320  132.6060 C.3    19  GLN19       0.1566
      3  C         84.1180  -14.0040  131.3580 C.2    19  GLN19       0.2260
      4  O         83.6420  -15.1360  131.3610 O.2    19  GLN19      -0.2867
      5  CB        82.7180  -12.3980  132.5220 C.3    19  GLN19       0.0367
      6  CG        82.3180  -11.6040  133.7170 C.3    19  GLN19       0.0905
      7  CD        81.1670  -10.6750  133.4060 C.2    19  GLN19       0.2608
      8  OE1       81.0030   -9.6430  134.0460 O.2    19  GLN19      -0.2717
      9  NE2       80.3580  -11.0370  132.4170 N.am   19  GLN19      -0.0878
     10  N         77.5120  -14.6750  131.3220 N.3    23  GLY23      -0.1225
     11  CA        76.8960  -13.5910  132.0750 C.3    23  GLY23       0.1811
     12  C         77.0580  -13.8100  133.5750 C.2    23  GLY23       0.2280
     13  O         76.0870  -13.8230  134.3270 O.2    23  GLY23      -0.2866
     14  N         78.7630  -11.7520  135.7720 N.3    25  CYS25      -0.1221
     15  CA        79.1610  -10.5640  136.5140 C.3    25  CYS25       0.1808
     16  C         78.7850  -10.6850  137.9960 C.2    25  CYS25       0.2601
     17  O         79.5510  -10.2970  138.8790 O.2    25  CYS25      -0.2717
     18  CB        78.5040   -9.3180  135.9190 C.3    25  CYS25       0.0970
     19  SG        76.7050   -9.3670  135.9540 S.3    25  CYS25      -0.0800
     20  N         77.5860  -11.2000  138.2580 N.am   26  TRP26      -0.1976
     21  CA        77.0920  -11.3880  139.6150 C.3    26  TRP26       0.1640
     22  C         78.0520  -12.2340  140.4710 C.2    26  TRP26       0.2290
     23  O         78.3040  -11.9110  141.6320 O.2    26  TRP26      -0.2864
     24  CB        75.6870  -12.0220  139.5810 C.3    26  TRP26       0.0576
     25  CG        75.6340  -13.4210  139.0170 C.ar   26  TRP26       0.0006
     26  CD1       75.3980  -13.7770  137.7160 C.ar   26  TRP26       0.0946
     27  CD2       75.8180  -14.6470  139.7410 C.ar   26  TRP26       0.0152
     28  NE1       75.4270  -15.1470  137.5870 N.ar   26  TRP26      -0.2442
     29  CE2       75.6840  -15.7060  138.8110 C.ar   26  TRP26       0.0810
     30  CE3       76.0870  -14.9550  141.0880 C.ar   26  TRP26       0.0012
     31  CZ2       75.8100  -17.0510  139.1840 C.ar   26  TRP26       0.0191
     32  CZ3       76.2160  -16.2910  141.4550 C.ar   26  TRP26       0.0001
     33  CH2       76.0760  -17.3240  140.5060 C.ar   26  TRP26       0.0015
     34  N         75.4110  -18.5140  133.7650 N.3    63  CYS63      -0.1221
     35  CA        75.8740  -17.5120  132.8150 C.3    63  CYS63       0.1808
     36  C         74.7340  -16.6140  132.3120 C.2    63  CYS63       0.2602
     37  O         74.9740  -15.6720  131.5560 O.2    63  CYS63      -0.2717
     38  CB        76.6140  -18.1710  131.6340 C.3    63  CYS63       0.0970
     39  SG        78.2190  -18.9500  132.0460 S.3    63  CYS63      -0.0800
     40  N         73.5090  -16.8930  132.7640 N.am   64  GLY64      -0.1942
     41  CA        72.3420  -16.1200  132.3720 C.3    64  GLY64       0.2014
     42  C         71.9490  -15.0380  133.3640 C.2    64  GLY64       0.2639
     43  O         70.8910  -14.4060  133.2220 O.2    64  GLY64      -0.2714
     44  N         72.8050  -14.7930  134.3540 N.am   65  GLY65      -0.1939
     45  CA        72.5280  -13.7610  135.3390 C.3    65  GLY65       0.2014
     46  C         72.2300  -14.2960  136.7230 C.2    65  GLY65       0.2639
     47  O         71.9170  -15.4800  136.8840 O.2    65  GLY65      -0.2714
     48  N         72.3080  -13.4230  137.7260 N.am   66  GLY66      -0.1939
     49  CA        72.0380  -13.8330  139.0940 C.3    66  GLY66       0.2014
     50  C         72.1270  -12.6870  140.0830 C.2    66  GLY66       0.2639
     51  O         72.4700  -11.5690  139.7110 O.2    66  GLY66      -0.2714
     52  N         71.8110  -12.9740  141.3420 N.am   67  TYR67      -0.1959
     53  CA        71.8400  -11.9930  142.4210 C.3    67  TYR67       0.1771
     54  C         72.9560  -12.3310  143.3950 C.2    67  TYR67       0.2619
     55  O         73.1610  -13.5010  143.7310 O.2    67  TYR67      -0.2715
     56  CB        70.5110  -11.9950  143.1750 C.3    67  TYR67       0.0574
     57  CG        69.3740  -11.3950  142.3890 C.ar   67  TYR67      -0.0198
     58  CD1       69.3670  -10.0330  142.0840 C.ar   67  TYR67      -0.0009
     59  CD2       68.3150  -12.1860  141.9340 C.ar   67  TYR67      -0.0009
     60  CE1       68.3480   -9.4660  141.3530 C.ar   67  TYR67       0.0417
     61  CE2       67.2810  -11.6260  141.1940 C.ar   67  TYR67       0.0417
     62  CZ        67.3110  -10.2630  140.9090 C.ar   67  TYR67       0.1957
     63  OH        66.3180   -9.6840  140.1680 O.3    67  TYR67      -0.2866
     64  N         73.6180  -11.2930  143.8970 N.am   68  MET68      -0.1977
     65  CA        74.7240  -11.4380  144.8350 C.3    68  MET68       0.1605
     66  C         74.2810  -12.0030  146.1940 C.2    68  MET68       0.2287
     67  O         74.9870  -12.8350  146.7820 O.2    68  MET68      -0.2864
     68  CB        75.4440  -10.0950  145.0240 C.3    68  MET68       0.0413
     69  CG        76.1020   -9.5200  143.7510 C.3    68  MET68       0.0598
     70  SD        74.9550   -8.8310  142.4990 S.3    68  MET68      -0.1393
     71  CE        74.6010   -7.2670  143.2320 C.3    68  MET68       0.0692
     72  N         74.7670   -3.3520  141.6320 N.3   134  ALA134     -0.1245
     73  CA        74.3630   -3.6430  140.2650 C.3   134  ALA134      0.1562
     74  C         73.9950   -2.2980  139.6420 C.2   134  ALA134      0.2260
     75  O         73.5130   -1.3990  140.3360 O.2   134  ALA134     -0.2867
     76  CB        73.1830   -4.5860  140.2430 C.3   134  ALA134      0.0290
     77  N         68.6950   -2.4190  136.0780 N.3   160  LEU160     -0.1231
     78  CA        69.9820   -2.8870  136.5540 C.3   160  LEU160      0.1693
     79  C         70.2490   -4.1350  135.7390 C.2   160  LEU160      0.2592
     80  O         69.4010   -5.0260  135.6800 O.2   160  LEU160     -0.2718
     81  CB        69.9130   -3.2120  138.0520 C.3   160  LEU160      0.0284
     82  CG        69.4550   -2.0770  138.9870 C.3   160  LEU160      0.0019
     83  CD1       69.5370   -2.5560  140.4230 C.3   160  LEU160      0.0001
     84  CD2       70.2910   -0.8130  138.8020 C.3   160  LEU160      0.0001
     85  N         71.3950   -4.2000  135.0780 N.am  161  ASN161     -0.1960
     86  CA        71.6810   -5.3770  134.2550 C.3   161  ASN161      0.1819
     87  C         73.0930   -5.9070  134.3970 C.2   161  ASN161      0.2621
     88  O         73.4630   -6.9120  133.7760 O.2   161  ASN161     -0.2715
     89  CB        71.3750   -5.0760  132.7750 C.3   161  ASN161      0.1195
     90  CG        71.9650   -3.7550  132.3110 C.2   161  ASN161      0.2630
     91  OD1       73.1760   -3.5470  132.3700 O.2   161  ASN161     -0.2716
     92  ND2       71.1090   -2.8480  131.8700 N.am  161  ASN161     -0.0877
     93  N         73.8660   -5.2890  135.2740 N.am  162  HIS162     -0.1959
     94  CA        75.2410   -5.7070  135.4370 C.3   162  HIS162      0.1787
     95  C         75.7200   -5.5160  136.8770 C.2   162  HIS162      0.2620
     96  O         75.6090   -4.4210  137.4440 O.2   162  HIS162     -0.2715
     97  CB        76.1010   -4.8970  134.4590 C.3   162  HIS162      0.0785
     98  CG        77.5320   -5.3280  134.4050 C.ar  162  HIS162      0.0821
     99  ND1       77.9370   -6.4780  133.7610 N.ar  162  HIS162     -0.2267
    100  CD2       78.6500   -4.7780  134.9340 C.ar  162  HIS162      0.1154
    101  CE1       79.2430   -6.6240  133.9070 C.ar  162  HIS162      0.1986
    102  NE2       79.6980   -5.6070  134.6140 N.ar  162  HIS162     -0.2212
    103  N         76.1870   -6.6030  137.4830 N.am  163  ALA163     -0.1977
    104  CA        76.6960   -6.5540  138.8450 C.3   163  ALA163      0.1597
    105  C         78.1570   -6.1240  138.7890 C.2   163  ALA163      0.2287
    106  O         78.9350   -6.5990  137.9430 O.2   163  ALA163     -0.2864
    107  CB        76.5590   -7.9040  139.5230 C.3   163  ALA163      0.0319
    108  N         70.6790   -1.9840  144.3870 N.3   209  LEU209     -0.1245
    109  CA        70.8050   -3.3970  144.6770 C.3   209  LEU209      0.1561
    110  C         72.1860   -3.6680  145.2720 C.2   209  LEU209      0.2260
    111  O         72.9270   -4.5150  144.7690 O.2   209  LEU209     -0.2867
    112  CB        70.6240   -4.1910  143.3750 C.3   209  LEU209      0.0270
    113  CG        70.3850   -5.7020  143.4590 C.3   209  LEU209      0.0019
    114  CD1       68.9350   -5.9630  143.8650 C.3   209  LEU209      0.0001
    115  CD2       70.6680   -6.3540  142.1250 C.3   209  LEU209      0.0001
@<TRIPOS>BOND
     1    10    11    1
     2     3     4    2
     3     3     2    1
     4    37    36    2
     5    38    39    1
     6    38    35    1
     7    92    90   am
     8    11    12    1
     9    90    91    2
    10    90    89    1
    11    36    40   am
    12    36    35    1
    13    41    40    1
    14    41    42    1
    15     9     7   am
    16     5     2    1
    17     5     6    1
    18     2     1    1
    19    89    86    1
    20    35    34    1
    21    43    42    2
    22    42    44   am
    23     7     6    1
    24     7     8    2
    25    12    13    2
    26    99   101   ar
    27    99    98   ar
    28    88    87    2
    29   101   102   ar
    30    86    87    1
    31    86    85    1
    32    44    45    1
    33    87    93   am
    34    98    97    1
    35    98   100   ar
    36    97    94    1
    37   102   100   ar
    38    85    79   am
    39    93    94    1
    40    45    46    1
    41    94    95    1
    42    80    79    2
    43    79    78    1
    44    14    15    1
    45    18    19    1
    46    18    15    1
    47    77    78    1
    48    15    16    1
    49    78    81    1
    50    46    47    2
    51    46    48   am
    52    95    96    2
    53    95   103   am
    54   103   104    1
    55    28    26   ar
    56    28    29   ar
    57    26    25   ar
    58    48    49    1
    59   106   105    2
    60    16    20   am
    61    16    17    2
    62    81    82    1
    63    20    21    1
    64   105   104    1
    65    84    82    1
    66    29    31   ar
    67    29    27   ar
    68   104   107    1
    69    82    83    1
    70    25    24    1
    71    25    27   ar
    72    49    50    1
    73    31    33   ar
    74    24    21    1
    75    21    22    1
    76    74    73    1
    77    74    75    2
    78    51    50    2
    79    27    30   ar
    80    50    52   am
    81    63    62    1
    82    76    73    1
    83    73    72    1
    84    22    23    2
    85    33    32   ar
    86    62    61   ar
    87    62    60   ar
    88    30    32   ar
    89    61    59   ar
    90    52    53    1
    91    60    58   ar
    92    59    57   ar
    93    58    57   ar
    94   115   113    1
    95    57    56    1
    96    53    56    1
    97    53    54    1
    98    70    71    1
    99    70    69    1
   100   112   113    1
   101   112   109    1
   102    54    55    2
   103    54    64   am
   104   113   114    1
   105    69    68    1
   106    64    65    1
   107   108   109    1
   108   109   110    1
   109   111   110    2
   110    65    68    1
   111    65    66    1
   112    66    67    2
