@<TRIPOS>MOLECULE
tmp/1q6nB01.pdb
 153 145 0 0 0
SMALL
GASTEIGER

@<TRIPOS>ATOM
      1  N         12.8270   38.7660   11.3740 N.3    28  ARG28      -0.1245
      2  CA        12.8340   37.5090   12.1140 C.3    28  ARG28       0.1563
      3  C         11.4030   37.0060   12.3980 C.2    28  ARG28       0.2260
      4  O         11.1250   35.8280   12.2640 O.2    28  ARG28      -0.2867
      5  CB        13.5750   37.6560   13.4540 C.3    28  ARG28       0.0307
      6  CG        15.0460   38.0670   13.3710 C.3    28  ARG28       0.0489
      7  CD        15.8570   37.3120   14.4390 C.3    28  ARG28       0.2205
      8  NE        15.2440   37.5270   15.7220 N.pl3  28  ARG28      -0.0865
      9  CZ        14.7700   36.5880   16.5290 C.cat  28  ARG28       0.5346
     10  NH1       14.8410   35.3140   16.2290 N.pl3  28  ARG28       0.1354
     11  NH2       14.1550   36.9630   17.6260 N.pl3  28  ARG28       0.1354
     12  N         24.5050   21.9090   16.0680 N.3    50  TYR50      -0.1227
     13  CA        23.7380   22.6890   17.0370 C.3    50  TYR50       0.1736
     14  C         22.3070   22.1830   17.2020 C.2    50  TYR50       0.2595
     15  O         21.6460   21.8790   16.2260 O.2    50  TYR50      -0.2718
     16  CB        23.7400   24.1710   16.5930 C.3    50  TYR50       0.0548
     17  CG        25.1230   24.7700   16.5500 C.ar   50  TYR50      -0.0200
     18  CD1       25.8860   24.8860   17.7120 C.ar   50  TYR50      -0.0009
     19  CD2       25.6680   25.2510   15.3520 C.ar   50  TYR50      -0.0009
     20  CE1       27.1610   25.4740   17.6830 C.ar   50  TYR50       0.0417
     21  CE2       26.9340   25.8340   15.3050 C.ar   50  TYR50       0.0417
     22  CZ        27.6790   25.9440   16.4690 C.ar   50  TYR50       0.1957
     23  OH        28.9500   26.5030   16.4190 O.3    50  TYR50      -0.2866
     24  N         21.8270   22.1390   18.4470 N.am   51  ARG51      -0.1966
     25  CA        20.5020   21.6410   18.7510 C.3    51  ARG51       0.1729
     26  C         19.4230   22.4120   18.0470 C.2    51  ARG51       0.2616
     27  O         18.5060   21.8270   17.4710 O.2    51  ARG51      -0.2715
     28  CB        20.2400   21.7100   20.2610 C.3    51  ARG51       0.0348
     29  CG        18.9370   21.0100   20.7300 C.3    51  ARG51       0.0492
     30  CD        18.6350   21.3950   22.1850 C.3    51  ARG51       0.2205
     31  NE        18.4400   22.8560   22.2570 N.pl3  51  ARG51      -0.0865
     32  CZ        18.5660   23.5530   23.3650 C.cat  51  ARG51       0.5346
     33  NH1       18.8610   22.9190   24.4910 N.pl3  51  ARG51       0.1354
     34  NH2       18.5220   24.8860   23.3290 N.pl3  51  ARG51       0.1354
     35  N         19.5320   23.7360   18.0780 N.am   52  ASP52      -0.1957
     36  CA        18.4980   24.5630   17.5080 C.3    52  ASP52       0.1840
     37  C         18.6370   24.9970   16.0540 C.2    52  ASP52       0.2621
     38  O         17.7610   25.6730   15.5550 O.2    52  ASP52      -0.2715
     39  CB        18.2550   25.7880   18.4360 C.3    52  ASP52       0.1450
     40  CG        17.9180   25.3590   19.8720 C.2    52  ASP52       0.3671
     41  OD1       17.4850   24.1870   20.0290 O.co2  52  ASP52      -0.2456
     42  OD2       18.0940   26.1400   20.8380 O.co2  52  ASP52      -0.2456
     43  N         19.7080   24.6260   15.3660 N.am   53  VAL53      -0.1977
     44  CA        19.8350   24.9970   13.9430 C.3    53  VAL53       0.1596
     45  C         19.6270   23.7290   13.0580 C.2    53  VAL53       0.2287
     46  O         20.3990   22.7770   13.1280 O.2    53  VAL53      -0.2864
     47  CB        21.2340   25.6260   13.6480 C.3    53  VAL53       0.0276
     48  CG1       21.3840   25.8470   12.1400 C.3    53  VAL53       0.0022
     49  CG2       21.4020   26.9710   14.4450 C.3    53  VAL53       0.0022
     50  N         37.2570   28.1250   20.9900 N.3   122  SER122     -0.1217
     51  CA        36.4160   26.9480   20.7980 C.3   122  SER122      0.1889
     52  C         36.3410   26.4590   19.3420 C.2   122  SER122      0.2288
     53  O         36.4370   27.2560   18.3940 O.2   122  SER122     -0.2866
     54  CB        35.0120   27.2340   21.3300 C.3   122  SER122      0.2089
     55  OG        34.2030   26.0800   21.2220 O.3   122  SER122     -0.2183
     56  N         34.7370   25.4890   16.1270 N.3   124  LYS124     -0.1245
     57  CA        33.5280   25.8460   15.4210 C.3   124  LYS124      0.1561
     58  C         33.3960   25.0500   14.1310 C.2   124  LYS124      0.2260
     59  O         32.3350   25.0520   13.4920 O.2   124  LYS124     -0.2867
     60  CB        33.5750   27.3420   15.1280 C.3   124  LYS124      0.0271
     61  CG        33.8020   28.1860   16.3940 C.3   124  LYS124      0.0035
     62  CD        32.5930   28.1080   17.3360 C.3   124  LYS124      0.0206
     63  CE        32.6050   29.2630   18.3440 C.3   124  LYS124      0.1093
     64  NZ        31.4060   29.2730   19.2200 N.3   124  LYS124     -0.1314
     65  N         32.2680   35.1380   14.6810 N.3   185  ASP185     -0.1225
     66  CA        30.9240   34.6720   14.9860 C.3   185  ASP185      0.1805
     67  C         30.0850   35.8480   15.4380 C.2   185  ASP185      0.2597
     68  O         30.4700   36.5700   16.3660 O.2   185  ASP185     -0.2718
     69  CB        30.9550   33.6830   16.1500 C.3   185  ASP185      0.1424
     70  CG        32.1900   32.8430   16.1520 C.2   185  ASP185      0.3668
     71  OD1       32.2010   31.8160   15.4450 O.co2 185  ASP185     -0.2456
     72  OD2       33.1610   33.2290   16.8570 O.co2 185  ASP185     -0.2456
     73  N         28.9360   36.0090   14.8030 N.am  186  PHE186     -0.1976
     74  CA        28.0110   37.0740   15.1300 C.3   186  PHE186      0.1639
     75  C         28.6040   38.4380   14.8220 C.2   186  PHE186      0.2290
     76  O         28.0310   39.4760   15.1560 O.2   186  PHE186     -0.2864
     77  CB        27.5820   36.9310   16.6040 C.3   186  PHE186      0.0560
     78  CG        26.8000   35.6630   16.8640 C.ar  186  PHE186     -0.0200
     79  CD1       25.5010   35.5130   16.3590 C.ar  186  PHE186     -0.0042
     80  CD2       27.4000   34.5780   17.4710 C.ar  186  PHE186     -0.0042
     81  CE1       24.8230   34.2910   16.4450 C.ar  186  PHE186     -0.0003
     82  CE2       26.7250   33.3410   17.5640 C.ar  186  PHE186     -0.0003
     83  CZ        25.4430   33.2040   17.0470 C.ar  186  PHE186     -0.0000
     84  N         29.7870   28.2850    7.4720 N.3   219  CYS219     -0.1221
     85  CA        30.4500   29.0430    8.5210 C.3   219  CYS219      0.1808
     86  C         30.3920   28.0560    9.6730 C.2   219  CYS219      0.2602
     87  O         30.7360   26.9170    9.4800 O.2   219  CYS219     -0.2717
     88  CB        29.7180   30.3840    8.8010 C.3   219  CYS219      0.0970
     89  SG        27.8590   30.4230    8.7690 S.3   219  CYS219     -0.0800
     90  N         29.9690   28.4340   10.8640 N.am  220  SER220     -0.1938
     91  CA        29.8870   27.3970   11.8900 C.3   220  SER220      0.2055
     92  C         28.5110   26.7110   11.8530 C.2   220  SER220      0.2642
     93  O         28.3920   25.4590   11.7670 O.2   220  SER220     -0.2714
     94  CB        30.1000   27.9800   13.2770 C.3   220  SER220      0.2130
     95  OG        30.2280   26.9510   14.2160 O.3   220  SER220     -0.2179
     96  N         27.4690   27.5220   11.9100 N.am  221  ALA221     -0.1977
     97  CA        26.1080   26.9810   11.9240 C.3   221  ALA221      0.1597
     98  C         25.4880   26.9360   10.5350 C.2   221  ALA221      0.2287
     99  O         24.5090   26.2290   10.3090 O.2   221  ALA221     -0.2864
    100  CB        25.2080   27.8110   12.8550 C.3   221  ALA221      0.0319
    101  N         24.2710   29.7730    8.9230 N.3   223  ILE223     -0.1231
    102  CA        23.1500   30.7160    8.8110 C.3   223  ILE223      0.1692
    103  C         23.4680   32.2020    8.9840 C.2   223  ILE223      0.2593
    104  O         22.8650   33.0510    8.3160 O.2   223  ILE223     -0.2718
    105  CB        21.9680   30.3770    9.8240 C.3   223  ILE223      0.0266
    106  CG1       22.4090   30.6120   11.2930 C.3   223  ILE223      0.0019
    107  CG2       21.4570   28.9470    9.5990 C.3   223  ILE223      0.0020
    108  CD1       21.3180   30.2880   12.3720 C.3   223  ILE223      0.0001
    109  N         24.3850   32.5200    9.8930 N.am  224  GLY224     -0.1942
    110  CA        24.6940   33.9240   10.1210 C.3   224  GLY224      0.2014
    111  C         25.5940   34.5310    9.0700 C.2   224  GLY224      0.2638
    112  O         25.1720   35.3870    8.2860 O.2   224  GLY224     -0.2714
    113  N         26.8490   34.1070    9.0720 N.am  225  ARG225     -0.1977
    114  CA        27.8000   34.5980    8.0790 C.3   225  ARG225      0.1597
    115  C         27.4160   34.0800    6.6750 C.2   225  ARG225      0.2287
    116  O         27.4270   34.8280    5.6940 O.2   225  ARG225     -0.2864
    117  CB        29.2090   34.1570    8.5100 C.3   225  ARG225      0.0334
    118  CG        29.7110   34.9670    9.7210 C.3   225  ARG225      0.0492
    119  CD        30.8700   34.2990   10.4540 C.3   225  ARG225      0.2205
    120  NE        30.4650   33.1410   11.2520 N.pl3 225  ARG225     -0.0865
    121  CZ        31.3160   32.4900   12.0420 C.cat 225  ARG225      0.5346
    122  NH1       32.5660   32.9120   12.1020 N.pl3 225  ARG225      0.1354
    123  NH2       30.9440   31.4140   12.7450 N.pl3 225  ARG225      0.1354
    124  N         16.3860   28.3580    7.9350 N.3   262  MET262     -0.1230
    125  CA        16.1150   29.2900    9.0530 C.3   262  MET262      0.1702
    126  C         17.3170   30.1340    9.4530 C.2   262  MET262      0.2592
    127  O         18.4750   29.8170    9.1230 O.2   262  MET262     -0.2718
    128  CB        15.6680   28.5220   10.3120 C.3   262  MET262      0.0401
    129  CG        16.7270   27.5290   10.7460 C.3   262  MET262      0.0596
    130  SD        16.4100   26.6530   12.2700 S.3   262  MET262     -0.1393
    131  CE        15.0700   25.5340   11.7610 C.3   262  MET262      0.0692
    132  N         17.0060   31.2230   10.1540 N.am  263  GLY263     -0.1957
    133  CA        17.9950   32.1270   10.7010 C.3   263  GLY263      0.1869
    134  C         19.0390   32.8090    9.8400 C.2   263  GLY263      0.2309
    135  O         19.9890   33.3410   10.4130 O.2   263  GLY263     -0.2863
    136  N         22.2370   36.5980   11.4150 N.3   266  GLN266     -0.1245
    137  CA        22.0240   36.5150   12.8420 C.3   266  GLN266      0.1566
    138  C         22.0270   37.7760   13.7040 C.2   266  GLN266      0.2260
    139  O         21.7230   37.6760   14.8840 O.2   266  GLN266     -0.2867
    140  CB        23.0200   35.5190   13.4440 C.3   266  GLN266      0.0367
    141  CG        22.6090   34.0530   13.2580 C.3   266  GLN266      0.0905
    142  CD        21.3030   33.7840   13.9850 C.2   266  GLN266      0.2608
    143  OE1       21.3020   33.5590   15.1710 O.2   266  GLN266     -0.2717
    144  NE2       20.1790   33.8550   13.2660 N.am  266  GLN266     -0.0878
    145  N         24.8350   42.5070   10.9990 N.3   270  GLN270     -0.1245
    146  CA        25.1040   41.7740    9.7710 C.3   270  GLN270      0.1566
    147  C         24.0790   42.2590    8.7560 C.2   270  GLN270      0.2260
    148  O         24.3970   42.3900    7.5820 O.2   270  GLN270     -0.2867
    149  CB        24.9910   40.2540    9.9630 C.3   270  GLN270      0.0367
    150  CG        25.9740   39.7090   10.9840 C.3   270  GLN270      0.0905
    151  CD        25.8310   38.2080   11.1560 C.2   270  GLN270      0.2608
    152  OE1       24.7390   37.6450   10.9760 O.2   270  GLN270     -0.2717
    153  NE2       26.9080   37.5520   11.5210 N.am  270  GLN270     -0.0878
@<TRIPOS>BOND
     1   116   115    2
     2   115   114    1
     3    84    85    1
     4   148   147    2
     5   124   125    1
     6   114   117    1
     7   114   113    1
     8   112   111    2
     9   104   103    2
    10   117   118    1
    11    85    88    1
    12    85    86    1
    13   147   146    1
    14    89    88    1
    15   102   101    1
    16   102   103    1
    17   102   105    1
    18   103   109   am
    19   125   126    1
    20   125   128    1
    21   111   113   am
    22   111   110    1
    23   127   126    2
    24   126   132   am
    25    87    86    2
    26   107   105    1
    27    86    90   am
    28   118   119    1
    29   146   149    1
    30   146   145    1
    31   105   106    1
    32   134   135    2
    33   134   133    1
    34   109   110    1
    35   149   150    1
    36   132   133    1
    37    99    98    2
    38   128   129    1
    39   119   120    1
    40    98    97    1
    41   129   130    1
    42    90    91    1
    43   152   151    2
    44   150   151    1
    45   151   153   am
    46   120   121    2
    47   106   108    1
    48     1     2    1
    49   136   137    1
    50   131   130    1
    51    93    92    2
    52    92    91    1
    53    92    96   am
    54    91    94    1
    55    96    97    1
    56    97   100    1
    57   121   122    1
    58   121   123    1
    59     2     3    1
    60     2     5    1
    61    48    47    1
    62     4     3    2
    63   137   140    1
    64   137   138    1
    65    45    46    2
    66    45    44    1
    67   141   140    1
    68   141   142    1
    69   144   142   am
    70    94    95    1
    71     6     5    1
    72     6     7    1
    73    59    58    2
    74    47    44    1
    75    47    49    1
    76   138   139    2
    77    44    43    1
    78   142   143    2
    79    58    57    1
    80     7     8    1
    81    65    66    1
    82    73    74    1
    83    73    67   am
    84    75    74    1
    85    75    76    2
    86    66    67    1
    87    66    69    1
    88    60    57    1
    89    60    61    1
    90    74    77    1
    91    21    19   ar
    92    21    22   ar
    93    19    17   ar
    94    43    37   am
    95    57    56    1
    96    67    68    2
    97    71    70   ar
    98    38    37    2
    99     8     9    2
   100    37    36    1
   101    12    13    1
   102    69    70    1
   103    70    72   ar
   104    15    14    2
   105    10     9    1
   106    79    81   ar
   107    79    78   ar
   108    61    62    1
   109    23    22    1
   110    81    83   ar
   111    22    20   ar
   112     9    11    1
   113    17    16    1
   114    17    18   ar
   115    16    13    1
   116    77    78    1
   117    78    80   ar
   118    13    14    1
   119    83    82   ar
   120    14    24   am
   121    62    63    1
   122    27    26    2
   123    80    82   ar
   124    36    35    1
   125    36    39    1
   126    20    18   ar
   127    26    35   am
   128    26    25    1
   129    63    64    1
   130    53    52    2
   131    39    40    1
   132    24    25    1
   133    25    28    1
   134    52    51    1
   135    40    41   ar
   136    40    42   ar
   137    28    29    1
   138    29    30    1
   139    51    50    1
   140    51    54    1
   141    55    54    1
   142    30    31    1
   143    31    32    2
   144    34    32    1
   145    32    33    1
