@<TRIPOS>MOLECULE
tmp/1q6pA00.pdb
 170 162 0 0 0
SMALL
GASTEIGER

@<TRIPOS>ATOM
      1  N         28.3220   35.7910   46.0840 N.3    28  ARG28      -0.1245
      2  CA        29.5970   35.8920   46.8010 C.3    28  ARG28       0.1563
      3  C         30.2400   34.5510   47.0580 C.2    28  ARG28       0.2260
      4  O         31.4400   34.3830   46.8520 O.2    28  ARG28      -0.2867
      5  CB        29.4340   36.5960   48.1510 C.3    28  ARG28       0.0307
      6  CG        29.1380   38.0710   48.0440 C.3    28  ARG28       0.0489
      7  CD        29.7750   38.7970   49.1920 C.3    28  ARG28       0.2205
      8  NE        29.3510   38.2240   50.4420 N.pl3  28  ARG28      -0.0865
      9  CZ        30.1570   37.9050   51.4480 C.cat  28  ARG28       0.5346
     10  NH1       31.4630   38.1090   51.3560 N.pl3  28  ARG28       0.1354
     11  NH2       29.6390   37.3700   52.5470 N.pl3  28  ARG28       0.1354
     12  N         37.8710   31.7860   42.9460 N.3    33  ASP33      -0.1239
     13  CA        38.9550   31.9680   43.8740 C.3    33  ASP33       0.1674
     14  C         40.2250   31.6840   43.0470 C.2    33  ASP33       0.2266
     15  O         40.3360   30.6500   42.3960 O.2    33  ASP33      -0.2867
     16  CB        38.8040   30.9890   45.0210 C.3    33  ASP33       0.1410
     17  CG        39.0070   31.6440   46.3480 C.2    33  ASP33       0.3668
     18  OD1       40.1470   32.1000   46.6140 O.co2  33  ASP33      -0.2456
     19  OD2       38.0140   31.7160   47.1180 O.co2  33  ASP33      -0.2456
     20  N         44.7330   48.2350   50.7390 N.3    50  TYR50      -0.1227
     21  CA        44.1120   47.3950   51.7630 C.3    50  TYR50       0.1736
     22  C         44.7130   46.0110   51.8670 C.2    50  TYR50       0.2595
     23  O         45.0910   45.4010   50.8750 O.2    50  TYR50      -0.2718
     24  CB        42.6250   47.2850   51.4560 C.3    50  TYR50       0.0548
     25  CG        41.9260   48.6160   51.4690 C.ar   50  TYR50      -0.0200
     26  CD1       41.8490   49.3750   52.6470 C.ar   50  TYR50      -0.0009
     27  CD2       41.3290   49.1240   50.3160 C.ar   50  TYR50      -0.0009
     28  CE1       41.1930   50.6110   52.6670 C.ar   50  TYR50       0.0417
     29  CE2       40.6660   50.3540   50.3260 C.ar   50  TYR50       0.0417
     30  CZ        40.6060   51.0940   51.5040 C.ar   50  TYR50       0.1957
     31  OH        39.9790   52.3200   51.5070 O.3    50  TYR50      -0.2866
     32  N         44.7900   45.5080   53.0840 N.am   51  ARG51      -0.1966
     33  CA        45.3680   44.1960   53.3190 C.3    51  ARG51       0.1729
     34  C         44.6160   43.0670   52.6360 C.2    51  ARG51       0.2616
     35  O         45.2250   42.2040   52.0100 O.2    51  ARG51      -0.2715
     36  CB        45.4170   43.8960   54.8180 C.3    51  ARG51       0.0348
     37  CG        46.1060   42.5490   55.1540 C.3    51  ARG51       0.0492
     38  CD        45.8180   42.1460   56.5950 C.3    51  ARG51       0.2205
     39  NE        44.3950   41.8440   56.7790 N.pl3  51  ARG51      -0.0865
     40  CZ        43.7750   41.8810   57.9500 C.cat  51  ARG51       0.5346
     41  NH1       44.4530   42.2040   59.0430 N.pl3  51  ARG51       0.1354
     42  NH2       42.4790   41.6280   58.0240 N.pl3  51  ARG51       0.1354
     43  N         43.2900   43.0790   52.7240 N.am   52  ASP52      -0.1957
     44  CA        42.5240   41.9780   52.1740 C.3    52  ASP52       0.1840
     45  C         41.9300   42.1270   50.7810 C.2    52  ASP52       0.2621
     46  O         40.9970   41.3880   50.4100 O.2    52  ASP52      -0.2715
     47  CB        41.4340   41.5700   53.1830 C.3    52  ASP52       0.1450
     48  CG        42.0120   41.2380   54.5600 C.2    52  ASP52       0.3671
     49  OD1       43.2160   40.8890   54.6330 O.co2  52  ASP52      -0.2456
     50  OD2       41.2750   41.3210   55.5620 O.co2  52  ASP52      -0.2456
     51  N         42.4400   43.0810   50.0100 N.am   53  VAL53      -0.1977
     52  CA        41.9630   43.2370   48.6370 C.3    53  VAL53       0.1596
     53  C         43.1830   43.1860   47.7230 C.2    53  VAL53       0.2287
     54  O         44.1100   43.9870   47.8740 O.2    53  VAL53      -0.2864
     55  CB        41.2040   44.5670   48.4180 C.3    53  VAL53       0.0276
     56  CG1       40.7590   44.6680   46.9580 C.3    53  VAL53       0.0022
     57  CG2       39.9700   44.6280   49.3360 C.3    53  VAL53       0.0022
     58  N         40.7700   59.0950   51.9280 N.3   124  LYS124     -0.1245
     59  CA        40.8240   57.6940   51.5170 C.3   124  LYS124      0.1561
     60  C         41.3810   57.5260   50.0910 C.2   124  LYS124      0.2260
     61  O         41.1360   56.4830   49.4340 O.2   124  LYS124     -0.2867
     62  CB        39.4160   57.0700   51.6330 C.3   124  LYS124      0.0271
     63  CG        39.0050   56.6810   53.0800 C.3   124  LYS124      0.0035
     64  CD        37.5290   56.2430   53.2040 C.3   124  LYS124      0.0206
     65  CE        37.2420   54.8880   52.5340 C.3   124  LYS124      0.1093
     66  NZ        37.5100   53.6710   53.3810 N.3   124  LYS124     -0.1314
     67  N         31.1250   55.4250   50.1850 N.3   185  ASP185     -0.1225
     68  CA        31.7180   54.1020   50.3550 C.3   185  ASP185      0.1805
     69  C         30.5900   53.1490   50.7630 C.2   185  ASP185      0.2597
     70  O         29.7830   53.4830   51.6250 O.2   185  ASP185     -0.2718
     71  CB        32.7410   54.1200   51.4750 C.3   185  ASP185      0.1424
     72  CG        33.6100   55.3310   51.4260 C.2   185  ASP185      0.3668
     73  OD1       34.4400   55.4440   50.4960 O.co2 185  ASP185     -0.2456
     74  OD2       33.4490   56.1850   52.3290 O.co2 185  ASP185     -0.2456
     75  N         30.5420   51.9730   50.1430 N.am  186  PHE186     -0.1976
     76  CA        29.5300   50.9680   50.4480 C.3   186  PHE186      0.1639
     77  C         28.0880   51.4630   50.2130 C.2   186  PHE186      0.2290
     78  O         27.1210   50.8330   50.6470 O.2   186  PHE186     -0.2864
     79  CB        29.7280   50.4740   51.8970 C.3   186  PHE186      0.0560
     80  CG        31.0880   49.8710   52.1360 C.ar  186  PHE186     -0.0200
     81  CD1       31.3860   48.5680   51.6990 C.ar  186  PHE186     -0.0042
     82  CD2       32.1070   50.6260   52.6990 C.ar  186  PHE186     -0.0042
     83  CE1       32.6750   48.0490   51.8210 C.ar  186  PHE186     -0.0003
     84  CE2       33.4040   50.1100   52.8270 C.ar  186  PHE186     -0.0003
     85  CZ        33.6860   48.8200   52.3850 C.ar  186  PHE186     -0.0000
     86  N         37.8400   53.3770   42.4560 N.3   219  CYS219     -0.1221
     87  CA        37.1130   53.9780   43.5640 C.3   219  CYS219      0.1808
     88  C         38.1260   53.9350   44.7000 C.2   219  CYS219      0.2602
     89  O         39.2590   54.3400   44.4970 O.2   219  CYS219     -0.2717
     90  CB        35.8250   53.1880   43.8920 C.3   219  CYS219      0.0970
     91  SG        35.8690   51.3660   43.8830 S.3   219  CYS219     -0.0800
     92  N         37.7690   53.4610   45.8920 N.am  220  SER220     -0.1938
     93  CA        38.8000   53.4140   46.9250 C.3   220  SER220      0.2055
     94  C         39.5900   52.0950   46.8700 C.2   220  SER220      0.2643
     95  O         40.8140   52.0860   46.7830 O.2   220  SER220     -0.2714
     96  CB        38.2100   53.6000   48.3330 C.3   220  SER220      0.2130
     97  OG        39.2430   53.5590   49.3100 O.3   220  SER220     -0.2179
     98  N         38.8910   50.9750   46.8940 N.am  221  ALA221     -0.1963
     99  CA        39.5530   49.6850   46.8550 C.3   221  ALA221      0.1728
    100  C         39.4910   49.1260   45.4560 C.2   221  ALA221      0.2617
    101  O         40.2520   48.2210   45.1190 O.2   221  ALA221     -0.2715
    102  CB        38.8790   48.7200   47.8340 C.3   221  ALA221      0.0334
    103  N         38.6050   49.6790   44.6270 N.am  222  GLY222     -0.1940
    104  CA        38.4880   49.1850   43.2640 C.3   222  GLY222      0.2014
    105  C         37.6340   47.9360   43.0830 C.2   222  GLY222      0.2639
    106  O         37.8320   47.1650   42.1300 O.2   222  GLY222     -0.2714
    107  N         36.6860   47.7130   43.9930 N.am  223  ILE223     -0.1963
    108  CA        35.8120   46.5670   43.8540 C.3   223  ILE223      0.1727
    109  C         34.3010   46.8360   44.0270 C.2   223  ILE223      0.2617
    110  O         33.4910   46.2640   43.2790 O.2   223  ILE223     -0.2715
    111  CB        36.2730   45.3970   44.7750 C.3   223  ILE223      0.0290
    112  CG1       36.1260   45.7700   46.2590 C.3   223  ILE223      0.0022
    113  CG2       37.7490   45.0540   44.4730 C.3   223  ILE223      0.0023
    114  CD1       36.3480   44.5800   47.2150 C.3   223  ILE223      0.0001
    115  N         33.9070   47.6930   44.9790 N.am  224  GLY224     -0.1940
    116  CA        32.4810   47.9410   45.1920 C.3   224  GLY224      0.2014
    117  C         31.8050   48.8100   44.1350 C.2   224  GLY224      0.2638
    118  O         31.0040   48.3400   43.2980 O.2   224  GLY224     -0.2714
    119  N         32.1200   50.0980   44.1790 N.am  225  ARG225     -0.1977
    120  CA        31.5710   51.0440   43.2220 C.3   225  ARG225      0.1597
    121  C         32.0790   50.7350   41.7860 C.2   225  ARG225      0.2287
    122  O         31.3260   50.8020   40.8210 O.2   225  ARG225     -0.2864
    123  CB        31.9620   52.4480   43.6640 C.3   225  ARG225      0.0334
    124  CG        31.1560   52.9320   44.8900 C.3   225  ARG225      0.0492
    125  CD        31.7980   54.1160   45.6320 C.3   225  ARG225      0.2205
    126  NE        32.9970   53.7170   46.3600 N.pl3 225  ARG225     -0.0865
    127  CZ        33.6770   54.5140   47.1790 C.cat 225  ARG225      0.5346
    128  NH1       33.2690   55.7700   47.3630 N.pl3 225  ARG225      0.1354
    129  NH2       34.7390   54.0540   47.8440 N.pl3 225  ARG225      0.1354
    130  N         33.7090   38.5530   38.2200 N.3   258  ARG258     -0.1245
    131  CA        34.4510   38.1980   39.4110 C.3   258  ARG258      0.1563
    132  C         35.5670   37.1920   39.1380 C.2   258  ARG258      0.2260
    133  O         36.3810   36.9260   40.0170 O.2   258  ARG258     -0.2867
    134  CB        33.5040   37.7330   40.5290 C.3   258  ARG258      0.0307
    135  CG        32.8390   38.9300   41.2820 C.3   258  ARG258      0.0489
    136  CD        32.0490   38.4990   42.5440 C.3   258  ARG258      0.2205
    137  NE        31.5760   39.6200   43.3690 N.pl3 258  ARG258     -0.0865
    138  CZ        31.5870   39.6220   44.7050 C.cat 258  ARG258      0.5346
    139  NH1       32.0490   38.5650   45.3690 N.pl3 258  ARG258      0.1354
    140  NH2       31.1400   40.6700   45.3800 N.pl3 258  ARG258      0.1354
    141  N         38.4950   40.0140   42.4990 N.3   262  MET262     -0.1230
    142  CA        37.6840   39.6110   43.6530 C.3   262  MET262      0.1702
    143  C         36.7320   40.6830   44.1530 C.2   262  MET262      0.2592
    144  O         36.9610   41.8760   43.9500 O.2   262  MET262     -0.2718
    145  CB        38.6000   39.1820   44.8080 C.3   262  MET262      0.0401
    146  CG        39.2940   40.3430   45.5070 C.3   262  MET262      0.0596
    147  SD        40.7000   39.9020   46.5210 S.3   262  MET262     -0.1393
    148  CE        39.8650   39.5020   48.0920 C.3   262  MET262      0.0692
    149  N         35.6530   40.2230   44.7880 N.am  263  GLY263     -0.1957
    150  CA        34.6480   41.0810   45.4100 C.3   263  GLY263      0.1869
    151  C         33.9320   42.2110   44.6840 C.2   263  GLY263      0.2309
    152  O         33.5000   43.1650   45.3410 O.2   263  GLY263     -0.2863
    153  N         29.9640   45.3170   46.4560 N.3   266  GLN266     -0.1245
    154  CA        30.0840   45.0070   47.8630 C.3   266  GLN266      0.1566
    155  C         28.8430   44.9730   48.7470 C.2   266  GLN266      0.2260
    156  O         28.9560   44.7240   49.9260 O.2   266  GLN266     -0.2867
    157  CB        31.1230   45.9380   48.4720 C.3   266  GLN266      0.0367
    158  CG        32.5480   45.5130   48.1700 C.3   266  GLN266      0.0905
    159  CD        32.8980   44.2240   48.8890 C.2   266  GLN266      0.2608
    160  OE1       33.0530   44.2220   50.1140 O.2   266  GLN266     -0.2717
    161  NE2       33.0020   43.1210   48.1470 N.am  266  GLN266     -0.0878
    162  N         23.9120   47.5790   46.2370 N.3   270  GLN270     -0.1245
    163  CA        24.5830   47.9790   45.0170 C.3   270  GLN270      0.1566
    164  C         24.1520   47.0300   43.9120 C.2   270  GLN270      0.2260
    165  O         23.9840   47.4510   42.7740 O.2   270  GLN270     -0.2867
    166  CB        26.1070   47.9490   45.1720 C.3   270  GLN270      0.0367
    167  CG        26.6390   49.0370   46.0900 C.3   270  GLN270      0.0905
    168  CD        28.1190   48.9000   46.3270 C.2   270  GLN270      0.2608
    169  OE1       28.7000   47.8310   46.0920 O.2   270  GLN270     -0.2717
    170  NE2       28.7460   49.9630   46.8160 N.am  270  GLN270     -0.0878
@<TRIPOS>BOND
     1   130   131    1
     2   132   131    1
     3   132   133    2
     4   131   134    1
     5   134   135    1
     6   122   121    2
     7   135   136    1
     8   121   120    1
     9   106   105    2
    10    15    14    2
    11    86    87    1
    12   141   142    1
    13   136   137    1
    14   165   164    2
    15    12    13    1
    16    14    13    1
    17   105   104    1
    18   105   107   am
    19   120   123    1
    20   120   119    1
    21   104   103    1
    22   110   109    2
    23   118   117    2
    24   137   138    2
    25    87    90    1
    26    87    88    1
    27   142   143    1
    28   142   145    1
    29   123   124    1
    30   108   107    1
    31   108   109    1
    32   108   111    1
    33    13    16    1
    34    91    90    1
    35   164   163    1
    36   144   143    2
    37   109   115   am
    38   117   119   am
    39   117   116    1
    40   143   149   am
    41   113   111    1
    42    89    88    2
    43   103   100   am
    44   151   152    2
    45   151   150    1
    46    88    92   am
    47   138   139    1
    48   138   140    1
    49   111   112    1
    50   149   150    1
    51   145   146    1
    52   124   125    1
    53   115   116    1
    54   163   166    1
    55   163   162    1
    56    16    17    1
    57   101   100    2
    58   166   167    1
    59   100    99    1
    60   146   147    1
    61   125   126    1
    62    92    93    1
    63     1     2    1
    64   167   168    1
    65   169   168    2
    66   112   114    1
    67   168   170   am
    68    17    18   ar
    69    17    19   ar
    70   126   127    2
    71   153   154    1
    72   147   148    1
    73    95    94    2
    74     2     3    1
    75     2     5    1
    76     4     3    2
    77    99    98    1
    78    99   102    1
    79    94    98   am
    80    94    93    1
    81    93    96    1
    82    56    55    1
    83   127   128    1
    84   127   129    1
    85    53    54    2
    86    53    52    1
    87   154   157    1
    88   154   155    1
    89     6     5    1
    90     6     7    1
    91   161   159   am
    92   158   157    1
    93   158   159    1
    94    96    97    1
    95    55    52    1
    96    55    57    1
    97    52    51    1
    98   155   156    2
    99   159   160    2
   100     7     8    1
   101    61    60    2
   102    51    45   am
   103    60    59    1
   104    75    76    1
   105    75    69   am
   106    67    68    1
   107    77    76    1
   108    77    78    2
   109    27    29   ar
   110    27    25   ar
   111    29    30   ar
   112    68    69    1
   113    68    71    1
   114    46    45    2
   115     8     9    2
   116    76    79    1
   117    73    72   ar
   118    20    21    1
   119    69    70    2
   120    45    44    1
   121    23    22    2
   122    10     9    1
   123    72    71    1
   124    72    74   ar
   125     9    11    1
   126    24    25    1
   127    24    21    1
   128    25    26   ar
   129    30    31    1
   130    30    28   ar
   131    59    62    1
   132    59    58    1
   133    62    63    1
   134    81    83   ar
   135    81    80   ar
   136    21    22    1
   137    83    85   ar
   138    22    32   am
   139    79    80    1
   140    35    34    2
   141    80    82   ar
   142    44    43    1
   143    44    47    1
   144    85    84   ar
   145    65    64    1
   146    65    66    1
   147    34    43   am
   148    34    33    1
   149    26    28   ar
   150    82    84   ar
   151    63    64    1
   152    32    33    1
   153    47    48    1
   154    33    36    1
   155    48    49   ar
   156    48    50   ar
   157    36    37    1
   158    37    38    1
   159    38    39    1
   160    39    40    2
   161    40    42    1
   162    40    41    1
