@<TRIPOS>MOLECULE
tmp/1q6tB01.pdb
 198 190 0 0 0
SMALL
GASTEIGER

@<TRIPOS>ATOM
      1  N         36.1740   38.7580   60.6010 N.3    28  ARG28      -0.1245
      2  CA        36.2580   37.6190   59.7010 C.3    28  ARG28       0.1563
      3  C         37.7000   37.1690   59.5610 C.2    28  ARG28       0.2260
      4  O         37.9930   35.9840   59.5940 O.2    28  ARG28      -0.2867
      5  CB        35.6900   37.9640   58.3260 C.3    28  ARG28       0.0307
      6  CG        34.1850   38.0890   58.3140 C.3    28  ARG28       0.0489
      7  CD        33.6370   37.6610   56.9830 C.3    28  ARG28       0.2205
      8  NE        34.3620   38.3380   55.9260 N.pl3  28  ARG28      -0.0865
      9  CZ        34.8990   37.7410   54.8680 C.cat  28  ARG28       0.5346
     10  NH1       34.7880   36.4300   54.6990 N.pl3  28  ARG28       0.1354
     11  NH2       35.5840   38.4680   53.9960 N.pl3  28  ARG28       0.1354
     12  N         38.9080   35.4760   62.7840 N.3    31  ALA31      -0.1231
     13  CA        38.1770   34.2770   63.1650 C.3    31  ALA31       0.1694
     14  C         38.9640   32.9750   63.1150 C.2    31  ALA31       0.2593
     15  O         39.8180   32.7530   62.2440 O.2    31  ALA31      -0.2718
     16  CB        36.8860   34.1480   62.3280 C.3    31  ALA31       0.0304
     17  N         38.6400   32.1130   64.0710 N.am   32  SER32      -0.1938
     18  CA        39.2340   30.8020   64.2150 C.3    32  SER32       0.2055
     19  C         38.8890   29.9030   63.0300 C.2    32  SER32       0.2643
     20  O         37.7950   29.9840   62.4670 O.2    32  SER32      -0.2714
     21  CB        38.7120   30.1360   65.4930 C.3    32  SER32       0.2130
     22  OG        38.9890   30.9290   66.6370 O.3    32  SER32      -0.2179
     23  N         39.8310   29.0380   62.6710 N.am   33  ASP33      -0.1957
     24  CA        39.6540   28.0990   61.5820 C.3    33  ASP33       0.1840
     25  C         39.9520   26.6940   62.1310 C.2    33  ASP33       0.2622
     26  O         41.0710   26.4140   62.5520 O.2    33  ASP33      -0.2715
     27  CB        40.6050   28.4610   60.4420 C.3    33  ASP33       0.1450
     28  CG        40.3870   27.6160   59.2030 C.2    33  ASP33       0.3671
     29  OD1       39.2720   27.0830   59.0230 O.co2  33  ASP33      -0.2456
     30  OD2       41.3390   27.4990   58.3940 O.co2  33  ASP33      -0.2456
     31  N         38.9400   25.8270   62.1610 N.am   34  PHE34      -0.1974
     32  CA        39.1030   24.4610   62.6680 C.3    34  PHE34       0.1639
     33  C         38.5330   23.4800   61.6570 C.2    34  PHE34       0.2290
     34  O         37.7160   23.8500   60.8160 O.2    34  PHE34      -0.2864
     35  CB        38.3780   24.2830   64.0210 C.3    34  PHE34       0.0560
     36  CG        39.0050   25.0480   65.1680 C.ar   34  PHE34      -0.0200
     37  CD1       40.2550   24.6670   65.6830 C.ar   34  PHE34      -0.0042
     38  CD2       38.3700   26.1590   65.7060 C.ar   34  PHE34      -0.0042
     39  CE1       40.8690   25.3900   66.7180 C.ar   34  PHE34      -0.0003
     40  CE2       38.9650   26.9010   66.7460 C.ar   34  PHE34      -0.0003
     41  CZ        40.2270   26.5160   67.2570 C.ar   34  PHE34      -0.0000
     42  N         23.4400   23.5590   53.6600 N.3    50  TYR50      -0.1227
     43  CA        24.3080   24.3440   52.7920 C.3    50  TYR50       0.1736
     44  C         25.7100   23.7680   52.5810 C.2    50  TYR50       0.2595
     45  O         26.3260   23.1970   53.4800 O.2    50  TYR50      -0.2718
     46  CB        24.3880   25.7710   53.3280 C.3    50  TYR50       0.0548
     47  CG        23.0400   26.4700   53.3560 C.ar   50  TYR50      -0.0200
     48  CD1       22.3190   26.7130   52.1740 C.ar   50  TYR50      -0.0009
     49  CD2       22.4700   26.8710   54.5670 C.ar   50  TYR50      -0.0009
     50  CE1       21.0430   27.3370   52.2050 C.ar   50  TYR50       0.0417
     51  CE2       21.2190   27.5020   54.6120 C.ar   50  TYR50       0.0417
     52  CZ        20.5020   27.7280   53.4320 C.ar   50  TYR50       0.1957
     53  OH        19.2380   28.2960   53.4990 O.3    50  TYR50      -0.2866
     54  N         26.2140   23.9350   51.3690 N.am   51  ARG51      -0.1966
     55  CA        27.5350   23.4130   50.9940 C.3    51  ARG51       0.1729
     56  C         28.6990   23.8580   51.8820 C.2    51  ARG51       0.2616
     57  O         29.4670   23.0440   52.4040 O.2    51  ARG51      -0.2715
     58  CB        27.8570   23.8030   49.5490 C.3    51  ARG51       0.0348
     59  CG        29.0710   23.0700   48.9540 C.3    51  ARG51       0.0492
     60  CD        29.4700   23.6700   47.6110 C.3    51  ARG51       0.2205
     61  NE        29.9930   25.0340   47.7290 N.pl3  51  ARG51      -0.0865
     62  CZ        29.9900   25.9190   46.7290 C.cat  51  ARG51       0.5346
     63  NH1       29.4870   25.5760   45.5500 N.pl3  51  ARG51       0.1354
     64  NH2       30.4810   27.1480   46.8970 N.pl3  51  ARG51       0.1354
     65  N         28.8150   25.1620   52.0650 N.am   52  ASP52      -0.1957
     66  CA        29.9190   25.7050   52.8370 C.3    52  ASP52       0.1840
     67  C         29.7110   25.9820   54.3330 C.2    52  ASP52       0.2621
     68  O         30.6200   26.5250   54.9800 O.2    52  ASP52      -0.2715
     69  CB        30.4280   26.9700   52.1430 C.3    52  ASP52       0.1450
     70  CG        30.8600   26.7090   50.6990 C.2    52  ASP52       0.3671
     71  OD1       31.1640   25.5350   50.3710 O.co2  52  ASP52      -0.2456
     72  OD2       30.9000   27.6760   49.9010 O.co2  52  ASP52      -0.2456
     73  N         28.5550   25.6150   54.8890 N.am   53  VAL53      -0.1977
     74  CA        28.3040   25.8670   56.3100 C.3    53  VAL53       0.1596
     75  C         28.3600   24.5750   57.0980 C.2    53  VAL53       0.2287
     76  O         27.4810   23.7000   56.9830 O.2    53  VAL53      -0.2864
     77  CB        26.9460   26.5490   56.5510 C.3    53  VAL53       0.0276
     78  CG1       26.7860   26.9110   58.0230 C.3    53  VAL53       0.0022
     79  CG2       26.8490   27.8000   55.7060 C.3    53  VAL53       0.0022
     80  N         32.3930   22.7070   63.3380 N.3    56  PHE56      -0.1241
     81  CA        33.7490   22.2350   63.5720 C.3    56  PHE56       0.1605
     82  C         33.6600   20.8550   64.2570 C.2    56  PHE56       0.2264
     83  O         32.7370   20.6050   65.0380 O.2    56  PHE56      -0.2867
     84  CB        34.4590   23.1760   64.5210 C.3    56  PHE56       0.0534
     85  CG        34.6280   24.5540   63.9890 C.ar   56  PHE56      -0.0203
     86  CD1       35.1390   24.7600   62.7000 C.ar   56  PHE56      -0.0042
     87  CD2       34.3280   25.6600   64.7950 C.ar   56  PHE56      -0.0042
     88  CE1       35.3580   26.0530   62.2140 C.ar   56  PHE56      -0.0003
     89  CE2       34.5410   26.9570   64.3280 C.ar   56  PHE56      -0.0003
     90  CZ        35.0630   27.1530   63.0230 C.ar   56  PHE56      -0.0000
     91  N         14.3740   31.8870   52.5860 N.3   123  LEU123     -0.1245
     92  CA        14.9850   30.5780   52.3320 C.3   123  LEU123      0.1561
     93  C         14.0930   29.4710   52.9030 C.2   123  LEU123      0.2260
     94  O         13.2760   29.7270   53.7850 O.2   123  LEU123     -0.2867
     95  CB        16.3890   30.5330   52.9500 C.3   123  LEU123      0.0270
     96  CG        17.4300   31.3150   52.1430 C.3   123  LEU123      0.0019
     97  CD1       18.5800   31.7550   53.0170 C.3   123  LEU123      0.0001
     98  CD2       17.9090   30.4430   51.0030 C.3   123  LEU123      0.0001
     99  N         16.2430   36.9360   55.9990 N.3   185  ASP185     -0.1225
    100  CA        17.5520   36.3590   55.7430 C.3   185  ASP185      0.1805
    101  C         18.5780   37.4840   55.5640 C.2   185  ASP185      0.2597
    102  O         18.3170   38.4720   54.8810 O.2   185  ASP185     -0.2718
    103  CB        17.4850   35.5070   54.4850 C.3   185  ASP185      0.1424
    104  CG        16.3050   34.5540   54.4960 C.2   185  ASP185      0.3668
    105  OD1       16.1660   33.7580   55.4590 O.co2 185  ASP185     -0.2456
    106  OD2       15.5080   34.6080   53.5330 O.co2 185  ASP185     -0.2456
    107  N         19.7380   37.3370   56.1890 N.am  186  PHE186     -0.1976
    108  CA        20.7760   38.3480   56.0940 C.3   186  PHE186      0.1639
    109  C         20.2970   39.7540   56.4560 C.2   186  PHE186      0.2290
    110  O         20.9190   40.7320   56.0630 O.2   186  PHE186     -0.2864
    111  CB        21.3720   38.3470   54.6880 C.3   186  PHE186      0.0560
    112  CG        22.0500   37.0560   54.3210 C.ar  186  PHE186     -0.0200
    113  CD1       23.3030   36.7480   54.8360 C.ar  186  PHE186     -0.0042
    114  CD2       21.4280   36.1370   53.4750 C.ar  186  PHE186     -0.0042
    115  CE1       23.9480   35.5390   54.5210 C.ar  186  PHE186     -0.0003
    116  CE2       22.0630   34.9230   53.1540 C.ar  186  PHE186     -0.0003
    117  CZ        23.3310   34.6320   53.6830 C.ar  186  PHE186     -0.0000
    118  N         18.2170   29.2670   62.7280 N.3   219  CYS219     -0.1221
    119  CA        17.6490   30.1610   61.7350 C.3   219  CYS219      0.1808
    120  C         17.7510   29.2580   60.5050 C.2   219  CYS219      0.2602
    121  O         17.4770   28.0610   60.6280 O.2   219  CYS219     -0.2717
    122  CB        18.4920   31.4630   61.6080 C.3   219  CYS219      0.0970
    123  SG        20.3410   31.3510   61.6620 S.3   219  CYS219     -0.0800
    124  N         18.1530   29.7650   59.3410 N.am  220  SER220     -0.1938
    125  CA        18.2550   28.8540   58.1880 C.3   220  SER220      0.2055
    126  C         19.5790   28.0880   58.1990 C.2   220  SER220      0.2642
    127  O         19.6000   26.8630   58.1480 O.2   220  SER220     -0.2714
    128  CB        18.1370   29.6080   56.8540 C.3   220  SER220      0.2130
    129  OG        18.2000   28.6990   55.7640 O.3   220  SER220     -0.2179
    130  N         20.6850   28.8240   58.2530 N.am  221  ALA221     -0.1977
    131  CA        22.0220   28.2180   58.2630 C.3   221  ALA221      0.1597
    132  C         22.5490   28.0140   59.6900 C.2   221  ALA221      0.2287
    133  O         23.4600   27.2240   59.9160 O.2   221  ALA221     -0.2864
    134  CB        22.9930   29.1120   57.4810 C.3   221  ALA221      0.0319
    135  N         23.9940   30.4970   61.5520 N.3   223  ILE223     -0.1231
    136  CA        25.1570   31.3210   61.8410 C.3   223  ILE223      0.1692
    137  C         24.8600   32.8140   61.9000 C.2   223  ILE223      0.2593
    138  O         25.3650   33.5140   62.7930 O.2   223  ILE223     -0.2718
    139  CB        26.3170   31.0790   60.8210 C.3   223  ILE223      0.0266
    140  CG1       25.9050   31.4720   59.4020 C.3   223  ILE223      0.0019
    141  CG2       26.7140   29.6090   60.8310 C.3   223  ILE223      0.0020
    142  CD1       27.0030   31.1800   58.3510 C.3   223  ILE223      0.0001
    143  N         24.0270   33.3000   60.9740 N.am  224  GLY224     -0.1942
    144  CA        23.7380   34.7320   60.9050 C.3   224  GLY224      0.2014
    145  C         22.8480   35.2660   62.0040 C.2   224  GLY224      0.2638
    146  O         23.2990   35.9880   62.9050 O.2   224  GLY224     -0.2714
    147  N         21.5650   34.9250   61.9120 N.am  225  ARG225     -0.1977
    148  CA        20.5950   35.3610   62.9120 C.3   225  ARG225      0.1597
    149  C         20.8540   34.6720   64.2710 C.2   225  ARG225      0.2287
    150  O         20.8300   35.3190   65.3230 O.2   225  ARG225     -0.2864
    151  CB        19.1840   35.0970   62.3760 C.3   225  ARG225      0.0334
    152  CG        18.7420   36.1270   61.3130 C.3   225  ARG225      0.0492
    153  CD        17.5760   35.6390   60.4520 C.3   225  ARG225      0.2205
    154  NE        17.9860   34.5900   59.5130 N.pl3 225  ARG225     -0.0865
    155  CZ        17.1890   34.0430   58.6000 C.cat 225  ARG225      0.5346
    156  NH1       15.9210   34.4360   58.5000 N.pl3 225  ARG225      0.1354
    157  NH2       17.6750   33.1420   57.7560 N.pl3 225  ARG225      0.1354
    158  N         33.0960   32.5400   67.8970 N.3   258  ARG258     -0.1245
    159  CA        33.4480   31.9090   66.6360 C.3   258  ARG258      0.1563
    160  C         34.4300   30.7450   66.7490 C.2   258  ARG258      0.2260
    161  O         34.7000   30.0660   65.7690 O.2   258  ARG258     -0.2867
    162  CB        33.9480   32.9620   65.6460 C.3   258  ARG258      0.0307
    163  CG        32.8440   33.4230   64.6930 C.3   258  ARG258      0.0489
    164  CD        33.2130   34.7180   64.0020 C.3   258  ARG258      0.2205
    165  NE        32.1610   35.2490   63.1370 N.pl3 258  ARG258     -0.0865
    166  CZ        32.2630   35.3470   61.8110 C.cat 258  ARG258      0.5346
    167  NH1       33.3640   34.9330   61.1910 N.pl3 258  ARG258      0.1354
    168  NH2       31.2900   35.9080   61.1120 N.pl3 258  ARG258      0.1354
    169  N         31.5100   28.4600   62.9100 N.3   262  MET262     -0.1230
    170  CA        31.8890   29.4480   61.8950 C.3   262  MET262      0.1702
    171  C         30.8290   30.4690   61.4940 C.2   262  MET262      0.2592
    172  O         29.6350   30.2490   61.6300 O.2   262  MET262     -0.2718
    173  CB        32.3320   28.7240   60.6190 C.3   262  MET262      0.0401
    174  CG        31.2020   27.8960   59.9920 C.3   262  MET262      0.0596
    175  SD        31.4910   27.2410   58.3130 S.3   262  MET262     -0.1393
    176  CE        32.8230   26.0400   58.5930 C.3   262  MET262      0.0692
    177  N         31.3210   31.5990   60.9940 N.am  263  GLY263     -0.1957
    178  CA        30.4840   32.6620   60.4600 C.3   263  GLY263      0.1869
    179  C         29.4230   33.3430   61.2950 C.2   263  GLY263      0.2309
    180  O         28.5370   33.9880   60.7430 O.2   263  GLY263     -0.2863
    181  N         26.4060   37.3220   60.0310 N.3   266  GLN266     -0.1245
    182  CA        26.6950   37.3650   58.6080 C.3   266  GLN266      0.1566
    183  C         26.9090   38.6760   57.8590 C.2   266  GLN266      0.2260
    184  O         27.3860   38.6570   56.7280 O.2   266  GLN266     -0.2867
    185  CB        25.6360   36.5400   57.8870 C.3   266  GLN266      0.0367
    186  CG        25.9830   35.0810   57.9180 C.3   266  GLN266      0.0905
    187  CD        27.2380   34.8040   57.1140 C.2   266  GLN266      0.2608
    188  OE1       27.1930   34.7830   55.8930 O.2   266  GLN266     -0.2717
    189  NE2       28.3650   34.6000   57.7930 N.am  266  GLN266     -0.0878
    190  N         24.3000   43.4900   60.7980 N.3   270  GLN270     -0.1245
    191  CA        23.8580   42.6580   61.9140 C.3   270  GLN270      0.1566
    192  C         24.7940   42.9420   63.0840 C.2   270  GLN270      0.2260
    193  O         24.3700   42.9820   64.2200 O.2   270  GLN270     -0.2867
    194  CB        23.9080   41.1760   61.5490 C.3   270  GLN270      0.0367
    195  CG        22.8210   40.7270   60.6030 C.3   270  GLN270      0.0905
    196  CD        22.9360   39.2670   60.1900 C.2   270  GLN270      0.2608
    197  OE1       24.0350   38.6790   60.1800 O.2   270  GLN270     -0.2717
    198  NE2       21.8070   38.6760   59.8150 N.am  270  GLN270     -0.0878
@<TRIPOS>BOND
     1    63    62    1
     2    62    64    1
     3    62    61    2
     4    60    61    1
     5    60    59    1
     6    59    58    1
     7    58    55    1
     8    72    70   ar
     9    71    70   ar
    10    70    69    1
    11    55    54    1
    12    55    56    1
    13    98    96    1
    14    54    44   am
    15    56    65   am
    16    56    57    2
    17    65    66    1
    18    69    66    1
    19    96    95    1
    20    96    97    1
    21    48    50   ar
    22    48    47   ar
    23    50    52   ar
    24    92    91    1
    25    92    93    1
    26    92    95    1
    27    44    43    1
    28    44    45    2
    29    43    46    1
    30    43    42    1
    31    66    67    1
    32    93    94    2
    33   116   114   ar
    34   116   117   ar
    35    46    47    1
    36    47    49   ar
    37    52    53    1
    38    52    51   ar
    39   114   112   ar
    40   106   104   ar
    41   117   115   ar
    42    11     9    1
    43   112   111    1
    44   112   113   ar
    45    67    73   am
    46    67    68    2
    47   103   104    1
    48   103   100    1
    49   104   105   ar
    50   115   113   ar
    51    49    51   ar
    52   111   108    1
    53    10     9    1
    54     9     8    2
    55   102   101    2
    56    73    74    1
    57   101   100    1
    58   101   107   am
    59    79    77    1
    60   100    99    1
    61   129   128    1
    62   188   187    2
    63     8     7    1
    64   110   109    2
    65   108   107    1
    66   108   109    1
    67    74    77    1
    68    74    75    1
    69    77    78    1
    70   184   183    2
    71   128   125    1
    72     7     6    1
    73    76    75    2
    74   187   189   am
    75   187   186    1
    76   134   131    1
    77   157   155    1
    78   183   182    1
    79   185   186    1
    80   185   182    1
    81   127   126    2
    82   125   126    1
    83   125   124    1
    84   126   130   am
    85   130   131    1
    86   131   132    1
    87   175   176    1
    88   175   174    1
    89     6     5    1
    90     5     2    1
    91   142   140    1
    92    30    28   ar
    93   156   155    1
    94   155   154    2
    95   182   181    1
    96    29    28   ar
    97    28    27    1
    98   124   120   am
    99   140   139    1
   100   154   153    1
   101     3     4    2
   102     3     2    1
   103   132   133    2
   104     2     1    1
   105   198   196   am
   106   174   173    1
   107   197   196    2
   108   196   195    1
   109    27    24    1
   110   153   152    1
   111   178   177    1
   112   178   179    1
   113   120   121    2
   114   120   119    1
   115   195   194    1
   116   173   170    1
   117   180   179    2
   118   190   191    1
   119    34    33    2
   120   139   141    1
   121   139   136    1
   122   144   143    1
   123   144   145    1
   124   143   137   am
   125   177   171   am
   126   168   166    1
   127   167   166    1
   128   152   151    1
   129   171   172    2
   130   171   170    1
   131   194   191    1
   132   135   136    1
   133    24    25    1
   134    24    23    1
   135   122   123    1
   136   122   119    1
   137    33    32    1
   138   119   118    1
   139   166   165    2
   140   136   137    1
   141   170   169    1
   142   137   138    2
   143   147   145   am
   144   147   148    1
   145   191   192    1
   146   145   146    2
   147    25    31   am
   148    25    26    2
   149    31    32    1
   150    88    86   ar
   151    88    90   ar
   152    15    14    2
   153    16    13    1
   154   151   148    1
   155    20    19    2
   156    32    35    1
   157    23    19   am
   158    86    85   ar
   159    12    13    1
   160   148   149    1
   161    90    89   ar
   162    19    18    1
   163   192   193    2
   164    14    13    1
   165    14    17   am
   166   165   164    1
   167    80    81    1
   168    81    82    1
   169    81    84    1
   170    85    84    1
   171    85    87   ar
   172   164   163    1
   173    35    36    1
   174    17    18    1
   175    18    21    1
   176    82    83    2
   177   149   150    2
   178    89    87   ar
   179   163   162    1
   180    36    37   ar
   181    36    38   ar
   182    21    22    1
   183   162   159    1
   184    37    39   ar
   185    38    40   ar
   186   161   160    2
   187   159   160    1
   188   159   158    1
   189    39    41   ar
   190    40    41   ar
