@<TRIPOS>MOLECULE
tmp/1q6yA03.pdb
 98 92 0 0 0
SMALL
GASTEIGER

@<TRIPOS>ATOM
      1  N         48.1700    2.2500   30.2620 N.3    39  PRO39      -0.2116
      2  CA        49.3160    2.2290   31.1670 C.3    39  PRO39       0.1372
      3  C         49.7650    0.8220   31.5780 C.2    39  PRO39       0.2244
      4  O         48.9300   -0.0010   31.8160 O.2    39  PRO39      -0.2868
      5  CB        48.8100    3.0170   32.3640 C.3    39  PRO39       0.0268
      6  CG        47.9390    4.0830   31.7010 C.3    39  PRO39       0.0207
      7  CD        47.1380    3.1850   30.7300 C.3    39  PRO39       0.0892
      8  N         52.6460    7.4820   24.4250 N.3    70  ILE70      -0.1231
      9  CA        52.1770    7.9570   25.6830 C.3    70  ILE70       0.1692
     10  C         51.2800    6.9380   26.3640 C.2    70  ILE70       0.2592
     11  O         50.4290    6.3400   25.7030 O.2    70  ILE70      -0.2718
     12  CB        51.4160    9.3450   25.5600 C.3    70  ILE70       0.0266
     13  CG1       51.0130    9.8040   27.0000 C.3    70  ILE70       0.0019
     14  CG2       50.1860    9.2970   24.7340 C.3    70  ILE70       0.0020
     15  CD1       50.3410   11.1810   27.0690 C.3    70  ILE70       0.0001
     16  N         51.5260    6.7100   27.6450 N.am   71  GLU71      -0.1966
     17  CA        50.7050    5.8460   28.4660 C.3    71  GLU71       0.1733
     18  C         49.5780    6.6840   29.0010 C.2    71  GLU71       0.2616
     19  O         49.8430    7.7390   29.5580 O.2    71  GLU71      -0.2715
     20  CB        51.4870    5.2450   29.6130 C.3    71  GLU71       0.0429
     21  CG        52.2590    3.9950   29.2670 C.3    71  GLU71       0.1163
     22  CD        53.0850    3.5300   30.4430 C.2    71  GLU71       0.3649
     23  OE1       54.0680    4.2450   30.7850 O.co2  71  GLU71      -0.2457
     24  OE2       52.8020    2.4190   31.0060 O.co2  71  GLU71      -0.2457
     25  N         48.3260    6.2380   28.7920 N.am   72  LEU72      -0.1963
     26  CA        47.1440    7.0360   29.1560 C.3    72  LEU72       0.1728
     27  C         45.9250    6.1250   29.3380 C.2    72  LEU72       0.2616
     28  O         45.5310    5.3400   28.4140 O.2    72  LEU72      -0.2715
     29  CB        46.9190    8.1030   28.0900 C.3    72  LEU72       0.0311
     30  CG        45.8270    9.1360   28.3840 C.3    72  LEU72       0.0022
     31  CD1       46.3300   10.0710   29.5090 C.3    72  LEU72       0.0001
     32  CD2       45.4270    9.9230   27.1400 C.3    72  LEU72       0.0001
     33  N         45.3910    6.1030   30.5460 N.am   73  ASN73      -0.1972
     34  CA        44.1280    5.3790   30.8200 C.3    73  ASN73       0.1688
     35  C         42.9490    6.3000   30.4870 C.2    73  ASN73       0.2292
     36  O         42.6350    7.2190   31.2080 O.2    73  ASN73      -0.2864
     37  CB        44.0210    4.8740   32.2700 C.3    73  ASN73       0.1181
     38  CG        42.9220    3.7730   32.4260 C.2    73  ASN73       0.2629
     39  OD1       41.8300    3.8700   31.8570 O.2    73  ASN73      -0.2716
     40  ND2       43.2420    2.7280   33.1350 N.am   73  ASN73      -0.0877
     41  N         40.8860   11.7680   34.3830 N.3    78  GLU78      -0.1245
     42  CA        42.0990   12.5040   34.0110 C.3    78  GLU78       0.1567
     43  C         42.5890   12.1380   32.5740 C.2    78  GLU78       0.2260
     44  O         42.9540   13.0100   31.7820 O.2    78  GLU78      -0.2867
     45  CB        43.1860   12.2750   35.0350 C.3    78  GLU78       0.0388
     46  CG        44.5140   12.9070   34.6500 C.3    78  GLU78       0.1160
     47  CD        45.5850   12.6550   35.6860 C.2    78  GLU78       0.3649
     48  OE1       46.2450   11.5970   35.6520 O.co2  78  GLU78      -0.2457
     49  OE2       45.7630   13.5330   36.5610 O.co2  78  GLU78      -0.2457
     50  N         43.1560   14.6860   29.1640 N.3    82  VAL82      -0.1245
     51  CA        44.3320   14.7490   28.3270 C.3    82  VAL82       0.1561
     52  C         43.9280   14.4420   26.8850 C.2    82  VAL82       0.2260
     53  O         44.3340   15.1260   25.9440 O.2    82  VAL82      -0.2867
     54  CB        45.4260   13.7530   28.8360 C.3    82  VAL82       0.0252
     55  CG1       46.5670   13.6280   27.8460 C.3    82  VAL82       0.0019
     56  CG2       45.9790   14.2270   30.2520 C.3    82  VAL82       0.0019
     57  N         55.6070   10.0720   27.1690 N.3   393  THR393     -0.1218
     58  CA        54.5280   10.6280   27.9450 C.3   393  THR393      0.1862
     59  C         54.8060   12.0700   28.3670 C.2   393  THR393      0.2287
     60  O         53.9990   12.9650   28.1430 O.2   393  THR393     -0.2866
     61  CB        54.3760    9.7580   29.1570 C.3   393  THR393      0.1770
     62  OG1       53.9660    8.4430   28.7550 O.3   393  THR393     -0.2211
     63  CG2       53.3420   10.3350   30.1170 C.3   393  THR393      0.0375
     64  N         52.8670   15.3680   27.1750 N.3   397  LEU397     -0.1245
     65  CA        52.2040   16.2350   28.1380 C.3   397  LEU397      0.1561
     66  C         52.7710   17.6750   28.1800 C.2   397  LEU397      0.2260
     67  O         52.0090   18.6260   28.2690 O.2   397  LEU397     -0.2867
     68  CB        52.1590   15.5880   29.5030 C.3   397  LEU397      0.0270
     69  CG        51.2910   14.3220   29.5290 C.3   397  LEU397      0.0019
     70  CD1       51.5550   13.4480   30.8250 C.3   397  LEU397      0.0001
     71  CD2       49.8250   14.6230   29.4450 C.3   397  LEU397      0.0001
     72  N         50.8290   13.5360   38.2020 N.3   410  MET410     -0.1230
     73  CA        49.9980   12.4830   37.5530 C.3   410  MET410      0.1702
     74  C         50.7170   11.1170   37.5970 C.2   410  MET410      0.2592
     75  O         50.0680   10.1370   37.7690 O.2   410  MET410     -0.2718
     76  CB        49.6600   12.8370   36.1140 C.3   410  MET410      0.0401
     77  CG        48.9890   14.1950   35.9140 C.3   410  MET410      0.0596
     78  SD        48.8690   14.6190   34.1280 S.3   410  MET410     -0.1393
     79  CE        49.6020   16.1450   34.1670 C.3   410  MET410      0.0692
     80  N         52.0200   11.0460   37.4160 N.am  411  LYS411     -0.1980
     81  CA        52.7060    9.7210   37.4050 C.3   411  LYS411      0.1596
     82  C         52.6930    9.1400   38.7850 C.2   411  LYS411      0.2287
     83  O         52.4010    7.9320   38.9600 O.2   411  LYS411     -0.2864
     84  CB        54.1600    9.7720   36.9630 C.3   411  LYS411      0.0298
     85  CG        54.3470   10.2060   35.5490 C.3   411  LYS411      0.0038
     86  CD        55.7690   10.2300   35.1210 C.3   411  LYS411      0.0206
     87  CE        55.9030   10.4490   33.6270 C.3   411  LYS411      0.1093
     88  NZ        57.1730    9.8180   33.0140 N.3   411  LYS411     -0.1314
     89  N         49.3620    7.8180   39.8350 N.3   414  HIS414     -0.1241
     90  CA        49.1030    6.6030   39.1160 C.3   414  HIS414      0.1621
     91  C         49.8550    5.4590   39.7890 C.2   414  HIS414      0.2264
     92  O         49.3270    4.3490   39.9150 O.2   414  HIS414     -0.2867
     93  CB        49.5800    6.7190   37.6600 C.3   414  HIS414      0.0745
     94  CG        49.3990    5.4550   36.8700 C.ar  414  HIS414      0.0817
     95  ND1       48.2080    5.1300   36.2440 N.ar  414  HIS414     -0.2268
     96  CD2       50.2410    4.4160   36.6490 C.ar  414  HIS414      0.1154
     97  CE1       48.3390    3.9600   35.6490 C.ar  414  HIS414      0.1986
     98  NE2       49.5580    3.5000   35.8860 N.ar  414  HIS414     -0.2212
@<TRIPOS>BOND
     1     8     9    1
     2    14    12    1
     3    12     9    1
     4    12    13    1
     5     9    10    1
     6    11    10    2
     7    53    52    2
     8    10    16   am
     9    52    51    1
    10    13    15    1
    11    32    30    1
    12    57    58    1
    13    64    65    1
    14    16    17    1
    15    55    54    1
    16    58    59    1
    17    58    61    1
    18    29    30    1
    19    29    26    1
    20    65    66    1
    21    65    68    1
    22    60    59    2
    23    66    67    2
    24    51    54    1
    25    51    50    1
    26    30    31    1
    27    28    27    2
    28    17    18    1
    29    17    20    1
    30    62    61    1
    31    25    18   am
    32    25    26    1
    33    54    56    1
    34    18    19    2
    35    26    27    1
    36    61    63    1
    37    21    20    1
    38    21    22    1
    39    27    33   am
    40    71    69    1
    41    68    69    1
    42    69    70    1
    43     1     7    1
    44     1     2    1
    45    22    23   ar
    46    22    24   ar
    47    35    34    1
    48    35    36    2
    49    33    34    1
    50     7     6    1
    51    34    37    1
    52     2     3    1
    53     2     5    1
    54     3     4    2
    55     6     5    1
    56    44    43    2
    57    39    38    2
    58    37    38    1
    59    38    40   am
    60    43    42    1
    61    88    87    1
    62    87    86    1
    63    42    41    1
    64    42    45    1
    65    78    79    1
    66    78    77    1
    67    46    45    1
    68    46    47    1
    69    86    85    1
    70    85    84    1
    71    97    98   ar
    72    97    95   ar
    73    48    47   ar
    74    47    49   ar
    75    98    96   ar
    76    77    76    1
    77    76    73    1
    78    95    94   ar
    79    96    94   ar
    80    94    93    1
    81    84    81    1
    82    81    80    1
    83    81    82    1
    84    80    74   am
    85    73    74    1
    86    73    72    1
    87    74    75    2
    88    93    90    1
    89    82    83    2
    90    90    91    1
    91    90    89    1
    92    91    92    2
