@<TRIPOS>MOLECULE
tmp/1q6yA00.pdb
 231 226 0 0 0
SMALL
GASTEIGER

@<TRIPOS>ATOM
      1  N         45.4080    5.4670   18.3780 N.3    13  PHE13      -0.1241
      2  CA        44.6350    4.8280   19.3920 C.3    13  PHE13       0.1605
      3  C         44.2930    3.4220   18.9340 C.2    13  PHE13       0.2264
      4  O         43.1190    3.0390   18.6990 O.2    13  PHE13      -0.2867
      5  CB        43.3700    5.6220   19.5010 C.3    13  PHE13       0.0534
      6  CG        42.9470    5.8930   20.8590 C.ar   13  PHE13      -0.0203
      7  CD1       43.2940    5.0550   21.8950 C.ar   13  PHE13      -0.0042
      8  CD2       42.1860    7.0060   21.1080 C.ar   13  PHE13      -0.0042
      9  CE1       42.9020    5.3130   23.1560 C.ar   13  PHE13      -0.0003
     10  CE2       41.7790    7.2760   22.3460 C.ar   13  PHE13      -0.0003
     11  CZ        42.1450    6.4060   23.4010 C.ar   13  PHE13      -0.0000
     12  N         47.2900   -4.1230   17.7390 N.3    16  VAL16      -0.1231
     13  CA        47.4320   -5.2330   16.8070 C.3    16  VAL16       0.1692
     14  C         48.0170   -4.7830   15.4550 C.2    16  VAL16       0.2592
     15  O         49.0670   -4.1360   15.4490 O.2    16  VAL16      -0.2718
     16  CB        46.2030   -6.1290   16.7620 C.3    16  VAL16       0.0266
     17  CG1       46.5840   -7.5860   16.3830 C.3    16  VAL16       0.0020
     18  CG2       45.4560   -6.1070   18.1010 C.3    16  VAL16       0.0020
     19  N         47.4030   -5.0790   14.3110 N.am   17  GLN17      -0.1966
     20  CA        48.0750   -4.8580   13.0550 C.3    17  GLN17       0.1733
     21  C         47.3660   -3.8780   12.1210 C.2    17  GLN17       0.2617
     22  O         48.0220   -3.1650   11.4380 O.2    17  GLN17      -0.2715
     23  CB        48.3360   -6.1870   12.3330 C.3    17  GLN17       0.0408
     24  CG        48.9750   -6.0370   10.9860 C.3    17  GLN17       0.0908
     25  CD        49.3200   -7.3780   10.2880 C.2    17  GLN17       0.2608
     26  OE1       49.8610   -7.3610    9.1850 O.2    17  GLN17      -0.2717
     27  NE2       49.0500   -8.5060   10.9380 N.am   17  GLN17      -0.0878
     28  N         46.0620   -4.0040   11.9910 N.am   18  SER18      -0.1950
     29  CA        45.2430   -3.2150   11.0170 C.3    18  SER18       0.1924
     30  C         45.4640   -1.7140   11.3040 C.2    18  SER18       0.2314
     31  O         46.0720   -0.9970   10.5290 O.2    18  SER18      -0.2863
     32  CB        43.8010   -3.6210   11.1560 C.3    18  SER18       0.2116
     33  OG        43.3230   -3.5530   12.4520 O.3    18  SER18      -0.2180
     34  N         48.6880    6.0470   21.7190 N.3    36  ILE36      -0.1231
     35  CA        48.0560    6.2560   22.9730 C.3    36  ILE36       0.1692
     36  C         47.7750    4.8760   23.4580 C.2    36  ILE36       0.2592
     37  O         47.0120    4.1550   22.8210 O.2    36  ILE36      -0.2718
     38  CB        46.7540    7.0540   22.8070 C.3    36  ILE36       0.0266
     39  CG1       47.0500    8.4100   22.1800 C.3    36  ILE36       0.0019
     40  CG2       46.1040    7.2120   24.1550 C.3    36  ILE36       0.0020
     41  CD1       45.8700    9.3400   21.9330 C.3    36  ILE36       0.0001
     42  N         48.4020    4.4830   24.5540 N.am   37  GLU37      -0.1966
     43  CA        48.4400    3.0830   24.9770 C.3    37  GLU37       0.1733
     44  C         48.0070    2.9790   26.4690 C.2    37  GLU37       0.2616
     45  O         48.2860    3.8600   27.2850 O.2    37  GLU37      -0.2715
     46  CB        49.8390    2.4560   24.8290 C.3    37  GLU37       0.0429
     47  CG        50.5660    2.6560   23.5260 C.3    37  GLU37       0.1163
     48  CD        51.8650    1.9090   23.4310 C.2    37  GLU37       0.3649
     49  OE1       51.7770    0.6410   23.4320 O.co2  37  GLU37      -0.2457
     50  OE2       52.9530    2.5720   23.2390 O.co2  37  GLU37      -0.2457
     51  N         47.3450    1.9200   26.8530 N.am   38  ARG38      -0.1977
     52  CA        46.9610    1.7780   28.2330 C.3    38  ARG38       0.1597
     53  C         48.1760    1.5990   29.1200 C.2    38  ARG38       0.2287
     54  O         49.0910    0.8690   28.7660 O.2    38  ARG38      -0.2864
     55  CB        46.0320    0.5810   28.3970 C.3    38  ARG38       0.0334
     56  CG        46.4310   -0.5820   27.5210 C.3    38  ARG38       0.0492
     57  CD        45.3510   -1.6520   27.4990 C.3    38  ARG38       0.2205
     58  NE        44.8000   -1.8490   26.1600 N.pl3  38  ARG38      -0.0865
     59  CZ        43.8010   -2.6860   25.9010 C.cat  38  ARG38       0.5346
     60  NH1       43.2460   -3.3810   26.8860 N.pl3  38  ARG38       0.1354
     61  NH2       43.3580   -2.8270   24.6590 N.pl3  38  ARG38       0.1354
     62  N         48.3260    6.2380   28.7920 N.3    72  LEU72      -0.1231
     63  CA        47.1440    7.0360   29.1560 C.3    72  LEU72       0.1693
     64  C         45.9250    6.1250   29.3380 C.2    72  LEU72       0.2592
     65  O         45.5310    5.3400   28.4140 O.2    72  LEU72      -0.2718
     66  CB        46.9190    8.1030   28.0900 C.3    72  LEU72       0.0284
     67  CG        45.8270    9.1360   28.3840 C.3    72  LEU72       0.0019
     68  CD1       46.3300   10.0710   29.5090 C.3    72  LEU72       0.0001
     69  CD2       45.4270    9.9230   27.1400 C.3    72  LEU72       0.0001
     70  N         45.3910    6.1030   30.5460 N.am   73  ASN73      -0.1960
     71  CA        44.1280    5.3790   30.8200 C.3    73  ASN73       0.1819
     72  C         42.9490    6.3000   30.4870 C.2    73  ASN73       0.2622
     73  O         42.6350    7.2190   31.2080 O.2    73  ASN73      -0.2715
     74  CB        44.0210    4.8740   32.2700 C.3    73  ASN73       0.1195
     75  CG        42.9220    3.7730   32.4260 C.2    73  ASN73       0.2630
     76  OD1       41.8300    3.8700   31.8570 O.2    73  ASN73      -0.2716
     77  ND2       43.2420    2.7280   33.1350 N.am   73  ASN73      -0.0877
     78  N         42.3630    6.1010   29.3250 N.am   74  THR74      -0.1937
     79  CA        41.2470    6.9720   28.8530 C.3    74  THR74       0.2028
     80  C         39.9170    6.5910   29.5180 C.2    74  THR74       0.2642
     81  O         38.8990    7.1530   29.2140 O.2    74  THR74      -0.2714
     82  CB        41.1510    6.8170   27.3480 C.3    74  THR74       0.1808
     83  OG1       41.0140    5.4060   27.0190 O.3    74  THR74      -0.2208
     84  CG2       42.5140    7.2270   26.7460 C.3    74  THR74       0.0379
     85  N         39.9110    5.5880   30.3930 N.am   75  LYS75      -0.1977
     86  CA        38.7470    5.3700   31.2640 C.3    75  LYS75       0.1596
     87  C         38.7570    6.2320   32.5260 C.2    75  LYS75       0.2287
     88  O         37.7520    6.2350   33.2070 O.2    75  LYS75      -0.2864
     89  CB        38.5780    3.8960   31.6550 C.3    75  LYS75       0.0298
     90  CG        38.0600    3.0550   30.4570 C.3    75  LYS75       0.0038
     91  CD        38.1830    1.5280   30.7260 C.3    75  LYS75       0.0206
     92  CE        37.3930    0.7440   29.7210 C.3    75  LYS75       0.1093
     93  NZ        37.5450   -0.6640   30.1080 N.3    75  LYS75      -0.1314
     94  N         41.0420    1.2540   16.3510 N.3    96  ASN96      -0.1225
     95  CA        40.5380   -0.0480   15.8140 C.3    96  ASN96       0.1785
     96  C         40.2310   -0.9600   16.9710 C.2    96  ASN96       0.2597
     97  O         40.6390   -2.1150   17.0130 O.2    96  ASN96      -0.2718
     98  CB        41.5980   -0.6530   14.8520 C.3    96  ASN96       0.1169
     99  CG        42.8020   -1.2470   15.5720 C.2    96  ASN96       0.2627
    100  OD1       43.2990   -0.6970   16.5290 O.2    96  ASN96      -0.2716
    101  ND2       43.3000   -2.3670   15.0640 N.am   96  ASN96      -0.0877
    102  N         39.5490   -0.4060   17.9920 N.am   97  PHE97      -0.1962
    103  CA        39.2170   -1.2810   19.0960 C.3    97  PHE97       0.1771
    104  C         37.8980   -1.9620   18.8170 C.2    97  PHE97       0.2620
    105  O         37.2170   -1.6440   17.8390 O.2    97  PHE97      -0.2715
    106  CB        39.2370   -0.5700   20.4580 C.3    97  PHE97       0.0574
    107  CG        40.6500   -0.2120   20.8980 C.ar   97  PHE97      -0.0200
    108  CD1       40.9690    1.1190   21.1340 C.ar   97  PHE97      -0.0042
    109  CD2       41.6500   -1.1780   21.0420 C.ar   97  PHE97      -0.0042
    110  CE1       42.2640    1.4710   21.4950 C.ar   97  PHE97      -0.0003
    111  CE2       42.9650   -0.8150   21.3790 C.ar   97  PHE97      -0.0003
    112  CZ        43.2460    0.5000   21.6070 C.ar   97  PHE97      -0.0000
    113  N         37.5520   -2.9080   19.6820 N.am   98  HIS98      -0.1960
    114  CA        36.3120   -3.6710   19.4590 C.3    98  HIS98       0.1772
    115  C         35.1040   -2.7710   19.3120 C.2    98  HIS98       0.2462
    116  O         35.0330   -1.6300   19.8210 O.2    98  HIS98      -0.2730
    117  CB        36.0690   -4.7660   20.5200 C.3    98  HIS98       0.0785
    118  CG        35.6270   -4.2580   21.8670 C.ar   98  HIS98       0.0821
    119  ND1       34.5010   -3.4760   22.0180 N.ar   98  HIS98      -0.2267
    120  CD2       36.1620   -4.3810   23.1060 C.ar   98  HIS98       0.1154
    121  CE1       34.3380   -3.1830   23.2990 C.ar   98  HIS98       0.1986
    122  NE2       35.3160   -3.7430   23.9830 N.ar   98  HIS98      -0.2212
    123  N         34.1310   -3.2710   18.5660 N.am   99  PRO99      -0.2727
    124  CA        32.9180   -2.4760   18.3140 C.3    99  PRO99       0.1402
    125  C         32.3590   -1.8960   19.6590 C.2    99  PRO99       0.2269
    126  O         32.3960   -2.5920   20.6590 O.2    99  PRO99      -0.2865
    127  CB        31.9720   -3.4690   17.7080 C.3    99  PRO99       0.0296
    128  CG        32.9350   -4.4650   16.9970 C.3    99  PRO99       0.0237
    129  CD        34.0960   -4.6380   17.9660 C.3    99  PRO99       0.0939
    130  N         33.8360   -0.0180   21.8110 N.3   101  ALA101     -0.1245
    131  CA        34.8520    0.4070   22.7990 C.3   101  ALA101      0.1562
    132  C         35.0140    1.9550   22.9450 C.2   101  ALA101      0.2260
    133  O         34.7930    2.5140   24.0180 O.2   101  ALA101     -0.2867
    134  CB        36.2080   -0.2430   22.5290 C.3   101  ALA101      0.0290
    135  N         31.9580    3.9790   24.1790 N.3   104  HIS104     -0.1226
    136  CA        31.7370    3.8160   25.6260 C.3   104  HIS104      0.1752
    137  C         32.7260    4.6080   26.5070 C.2   104  HIS104      0.2595
    138  O         32.4760    4.7760   27.7080 O.2   104  HIS104     -0.2718
    139  CB        31.7620    2.3160   26.0040 C.3   104  HIS104      0.0759
    140  CG        30.4850    1.6050   25.6700 C.ar  104  HIS104      0.0818
    141  ND1       30.3630    0.2510   25.7900 N.ar  104  HIS104     -0.2268
    142  CD2       29.2980    2.1110   25.2270 C.ar  104  HIS104      0.1154
    143  CE1       29.1450   -0.0810   25.4420 C.ar  104  HIS104      0.1986
    144  NE2       28.4950    1.0090   25.0860 N.ar  104  HIS104     -0.2212
    145  N         33.8530    5.0650   25.9650 N.am  105  MET105     -0.1979
    146  CA        34.6930    6.0550   26.6720 C.3   105  MET105      0.1605
    147  C         34.1830    7.4730   26.5490 C.2   105  MET105      0.2287
    148  O         34.6870    8.3940   27.2280 O.2   105  MET105     -0.2864
    149  CB        36.0830    6.0730   26.0880 C.3   105  MET105      0.0413
    150  CG        36.8690    4.8760   26.4800 C.3   105  MET105      0.0598
    151  SD        38.2430    4.6860   25.3560 S.3   105  MET105     -0.1393
    152  CE        39.0710    3.3230   26.3150 C.3   105  MET105      0.0692
    153  N         38.6340    1.4600   12.1630 N.3   124  ILE124     -0.1231
    154  CA        38.5900    0.1210   11.6120 C.3   124  ILE124      0.1692
    155  C         37.7810   -0.8250   12.5180 C.2   124  ILE124      0.2592
    156  O         37.9590   -0.9040   13.7670 O.2   124  ILE124     -0.2718
    157  CB        39.9930   -0.3730   11.3890 C.3   124  ILE124      0.0266
    158  CG1       40.7050    0.3230   10.2210 C.3   124  ILE124      0.0019
    159  CG2       40.0430   -1.9630   11.1370 C.3   124  ILE124      0.0020
    160  CD1       42.1320    0.0440   10.2480 C.3   124  ILE124      0.0001
    161  N         36.9390   -1.6030   11.8830 N.am  125  LYS125     -0.1966
    162  CA        36.1280   -2.6250   12.5560 C.3   125  LYS125      0.1728
    163  C         36.1400   -3.8960   11.6630 C.2   125  LYS125      0.2616
    164  O         36.5530   -3.8410   10.4930 O.2   125  LYS125     -0.2715
    165  CB        34.6960   -2.1230   12.7400 C.3   125  LYS125      0.0311
    166  CG        34.5050   -0.9560   13.6700 C.3   125  LYS125      0.0038
    167  CD        34.7280   -1.3620   15.1690 C.3   125  LYS125      0.0206
    168  CE        35.1490   -0.1250   16.0630 C.3   125  LYS125      0.1093
    169  NZ        36.5760    0.1730   16.0060 N.3   125  LYS125     -0.1314
    170  N         35.7120   -5.0040   12.2280 N.am  126  GLY126     -0.1955
    171  CA        35.5600   -6.3160   11.5210 C.3   126  GLY126      0.1869
    172  C         34.6000   -6.1850   10.3990 C.2   126  GLY126      0.2309
    173  O         34.8830   -6.6180    9.2490 O.2   126  GLY126     -0.2863
    174  N         30.6920   -8.1560   15.9960 N.3   136  VAL136     -0.1231
    175  CA        31.5840   -9.3430   16.0720 C.3   136  VAL136      0.1692
    176  C         33.0640   -8.9400   16.0470 C.2   136  VAL136      0.2592
    177  O         33.4780   -8.0600   15.3320 O.2   136  VAL136     -0.2718
    178  CB        31.2680  -10.2660   14.9200 C.3   136  VAL136      0.0266
    179  CG1       32.2140  -11.5000   14.9040 C.3   136  VAL136      0.0020
    180  CG2       29.7730  -10.7210   15.0470 C.3   136  VAL136      0.0020
    181  N         33.8620   -9.7100   16.8100 N.am  137  LYS137     -0.1966
    182  CA        35.2930   -9.4760   16.8610 C.3   137  LYS137      0.1728
    183  C         35.9320  -10.1610   15.7200 C.2   137  LYS137      0.2616
    184  O         35.5670  -11.2560   15.3040 O.2   137  LYS137     -0.2715
    185  CB        35.8880  -10.0200   18.1410 C.3   137  LYS137      0.0311
    186  CG        35.8950   -9.0120   19.2560 C.3   137  LYS137      0.0038
    187  CD        35.9010   -9.6630   20.6210 C.3   137  LYS137      0.0206
    188  CE        36.0480   -8.6000   21.7040 C.3   137  LYS137      0.1093
    189  NZ        35.5460   -9.0730   23.0250 N.3   137  LYS137     -0.1314
    190  N         36.9050   -9.4280   15.2150 N.am  138  ALA138     -0.1963
    191  CA        37.5440   -9.9790   14.0370 C.3   138  ALA138      0.1728
    192  C         39.0610   -9.8790   14.1230 C.2   138  ALA138      0.2616
    193  O         39.6360   -8.8180   14.3810 O.2   138  ALA138     -0.2715
    194  CB        37.0350   -9.2710   12.8300 C.3   138  ALA138      0.0334
    195  N         39.6920  -11.0310   13.9500 N.am  139  TYR139     -0.1960
    196  CA        41.1030  -11.1470   13.6430 C.3   139  TYR139      0.1771
    197  C         41.2450  -11.5250   12.1650 C.2   139  TYR139      0.2619
    198  O         40.2590  -11.9830   11.4970 O.2   139  TYR139     -0.2715
    199  CB        41.7370  -12.2290   14.5080 C.3   139  TYR139      0.0574
    200  CG        41.8970  -11.8000   15.9600 C.ar  139  TYR139     -0.0198
    201  CD1       40.9010  -12.0230   16.8630 C.ar  139  TYR139     -0.0009
    202  CD2       43.0260  -11.0970   16.3940 C.ar  139  TYR139     -0.0009
    203  CE1       41.0120  -11.6210   18.2080 C.ar  139  TYR139      0.0417
    204  CE2       43.1400  -10.6760   17.7080 C.ar  139  TYR139      0.0417
    205  CZ        42.1200  -10.9220   18.5920 C.ar  139  TYR139      0.1957
    206  OH        42.2370  -10.5990   19.8740 O.3   139  TYR139     -0.2866
    207  N         42.4580  -11.3050   11.6990 N.am  140  GLU140     -0.1977
    208  CA        42.8680  -11.6060   10.3250 C.3   140  GLU140      0.1602
    209  C         41.9710  -12.6210    9.5730 C.2   140  GLU140      0.2287
    210  O         41.2590  -12.2600    8.6500 O.2   140  GLU140     -0.2864
    211  CB        44.3000  -12.1440   10.3380 C.3   140  GLU140      0.0415
    212  CG        44.7930  -12.5860    8.9560 C.3   140  GLU140      0.1163
    213  CD        44.7780  -11.4580    7.9530 C.2   140  GLU140      0.3649
    214  OE1       44.2680  -11.6640    6.8410 O.co2 140  GLU140     -0.2457
    215  OE2       45.2750  -10.3730    8.3010 O.co2 140  GLU140     -0.2457
    216  N         44.2030   -7.6930    8.0910 N.3   169  ASP169     -0.1239
    217  CA        44.9470   -6.7420    8.9340 C.3   169  ASP169      0.1674
    218  C         45.6060   -5.5910    8.2110 C.2   169  ASP169      0.2266
    219  O         45.0230   -4.5040    8.1140 O.2   169  ASP169     -0.2867
    220  CB        46.0220   -7.4900    9.7010 C.3   169  ASP169      0.1410
    221  CG        45.3580   -8.3570   10.7420 C.2   169  ASP169      0.3668
    222  OD1       44.1070   -8.4380   10.7470 O.co2 169  ASP169     -0.2456
    223  OD2       46.0790   -8.9640   11.5750 O.co2 169  ASP169     -0.2456
    224  N         37.2380   -4.7910    7.9050 N.3   200  MET200     -0.1245
    225  CA        38.1460   -5.7740    7.4310 C.3   200  MET200      0.1570
    226  C         37.4920   -6.6520    6.3690 C.2   200  MET200      0.2261
    227  O         38.1440   -7.1030    5.4270 O.2   200  MET200     -0.2867
    228  CB        38.5980   -6.6490    8.6040 C.3   200  MET200      0.0387
    229  CG        39.3760   -5.8870    9.6500 C.3   200  MET200      0.0595
    230  SD        39.5280   -6.7650   11.2500 S.3   200  MET200     -0.1393
    231  CE        40.5920   -8.2460   10.8490 C.3   200  MET200      0.0692
@<TRIPOS>BOND
     1   227   226    2
     2   226   225    1
     3   214   213   ar
     4   225   224    1
     5   225   228    1
     6   213   215   ar
     7   213   212    1
     8   216   217    1
     9   219   218    2
    10   218   217    1
    11   228   229    1
    12   210   209    2
    13   217   220    1
    14   212   211    1
    15    26    25    2
    16   173   172    2
    17   209   208    1
    18   229   230    1
    19   220   221    1
    20   158   160    1
    21   158   157    1
    22    25    27   am
    23    25    24    1
    24   208   211    1
    25   208   207    1
    26   172   171    1
    27   164   163    2
    28    31    30    2
    29   221   222   ar
    30   221   223   ar
    31   231   230    1
    32    24    23    1
    33    29    32    1
    34    29    30    1
    35    29    28    1
    36   159   157    1
    37    32    33    1
    38   157   154    1
    39    22    21    2
    40   198   197    2
    41   171   170    1
    42   154   153    1
    43   154   155    1
    44   163   170   am
    45   163   162    1
    46   207   197   am
    47   161   155   am
    48   161   162    1
    49    28    21   am
    50    21    20    1
    51   197   196    1
    52    23    20    1
    53   155   156    2
    54   162   165    1
    55   165   166    1
    56   194   191    1
    57    20    19    1
    58   196   195    1
    59   196   199    1
    60   166   167    1
    61   195   192   am
    62   191   192    1
    63   191   190    1
    64   192   193    2
    65    19    14   am
    66   199   200    1
    67    98    99    1
    68    98    95    1
    69   179   178    1
    70   178   180    1
    71   178   175    1
    72   101    99   am
    73   167   168    1
    74   190   183   am
    75   184   183    2
    76   177   176    2
    77    15    14    2
    78    14    13    1
    79    99   100    2
    80   183   182    1
    81    95    94    1
    82    95    96    1
    83   200   202   ar
    84   200   201   ar
    85   174   175    1
    86   169   168    1
    87   176   175    1
    88   176   181   am
    89    17    16    1
    90   202   204   ar
    91    16    13    1
    92    16    18    1
    93    13    12    1
    94   181   182    1
    95   182   185    1
    96   201   203   ar
    97    96    97    2
    98    96   102   am
    99   128   127    1
   100   128   129    1
   101   204   205   ar
   102   127   124    1
   103   105   104    2
   104   129   123    1
   105   102   103    1
   106   185   186    1
   107   203   205   ar
   108   124   123    1
   109   124   125    1
   110     1     2    1
   111   123   115   am
   112   205   206    1
   113     4     3    2
   114   104   103    1
   115   104   113   am
   116     3     2    1
   117   103   106    1
   118   186   187    1
   119   115   114    1
   120   115   116    2
   121     2     5    1
   122   114   113    1
   123   114   117    1
   124     5     6    1
   125   125   126    2
   126   106   107    1
   127   117   118    1
   128   187   188    1
   129     6     8   ar
   130     6     7   ar
   131   107   109   ar
   132   107   108   ar
   133   109   111   ar
   134     8    10   ar
   135   108   110   ar
   136   111   112   ar
   137   110   112   ar
   138   188   189    1
   139    34    35    1
   140   130   131    1
   141   118   119   ar
   142   118   120   ar
   143     7     9   ar
   144    41    39    1
   145   119   121   ar
   146    39    38    1
   147    10    11   ar
   148   134   131    1
   149   131   132    1
   150    38    35    1
   151    38    40    1
   152    37    36    2
   153   132   133    2
   154    35    36    1
   155   120   122   ar
   156     9    11   ar
   157    50    48   ar
   158   121   122   ar
   159    48    49   ar
   160    48    47    1
   161    36    42   am
   162    47    46    1
   163   135   136    1
   164    42    43    1
   165    61    59    1
   166    46    43    1
   167    43    44    1
   168   144   142   ar
   169   144   143   ar
   170   142   140   ar
   171   151   152    1
   172   151   150    1
   173   143   141   ar
   174   136   139    1
   175   136   137    1
   176   140   141   ar
   177   140   139    1
   178    59    58    2
   179    59    60    1
   180   145   137   am
   181   145   146    1
   182   149   150    1
   183   149   146    1
   184    58    57    1
   185    44    51   am
   186    44    45    2
   187   137   138    2
   188   147   146    1
   189   147   148    2
   190    84    82    1
   191    51    52    1
   192    83    82    1
   193    69    67    1
   194    82    79    1
   195    57    56    1
   196    56    55    1
   197    66    67    1
   198    66    63    1
   199    52    55    1
   200    52    53    1
   201    67    68    1
   202    65    64    2
   203    54    53    2
   204    62    63    1
   205    79    78    1
   206    79    80    1
   207    63    64    1
   208    81    80    2
   209    78    72   am
   210    64    70   am
   211    80    85   am
   212    92    93    1
   213    92    91    1
   214    85    86    1
   215    90    91    1
   216    90    89    1
   217    72    71    1
   218    72    73    2
   219    70    71    1
   220    71    74    1
   221    86    89    1
   222    86    87    1
   223    76    75    2
   224    74    75    1
   225    75    77   am
   226    87    88    2
