@<TRIPOS>MOLECULE
tmp/1q72B00.pdb
 100 96 0 0 0
SMALL
GASTEIGER

@<TRIPOS>ATOM
      1  N         35.5230   -4.2360   18.1890 N.3    31  ASP31      -0.1239
      2  CA        34.4030   -4.9320   18.8270 C.3    31  ASP31       0.1674
      3  C         33.4950   -3.9950   19.6200 C.2    31  ASP31       0.2266
      4  O         32.4040   -4.3820   20.0270 O.2    31  ASP31      -0.2867
      5  CB        34.8940   -6.0210   19.7880 C.3    31  ASP31       0.1410
      6  CG        35.5720   -7.1720   19.0790 C.2    31  ASP31       0.3668
      7  OD1       35.1090   -7.5600   17.9860 O.co2  31  ASP31      -0.2456
      8  OD2       36.5620   -7.7000   19.6300 O.co2  31  ASP31      -0.2456
      9  N         31.1260   -0.5250   20.5460 N.3    33  TRP33      -0.1241
     10  CA        30.1450    0.3840   19.9670 C.3    33  TRP33       0.1605
     11  C         30.7310    1.6970   20.4660 C.2    33  TRP33       0.2264
     12  O         31.2290    1.7550   21.5950 O.2    33  TRP33      -0.2867
     13  CB        28.7600    0.1640   20.5750 C.3    33  TRP33       0.0550
     14  CG        28.0640   -1.0720   20.0780 C.ar   33  TRP33       0.0003
     15  CD1       28.6510   -2.2030   19.5870 C.ar   33  TRP33       0.0946
     16  CD2       26.6510   -1.3210   20.0800 C.ar   33  TRP33       0.0152
     17  NE1       27.6910   -3.1440   19.2870 N.ar   33  TRP33      -0.2442
     18  CE2       26.4560   -2.6290   19.5810 C.ar   33  TRP33       0.0810
     19  CE3       25.5320   -0.5680   20.4600 C.ar   33  TRP33       0.0012
     20  CZ2       25.1850   -3.2030   19.4530 C.ar   33  TRP33       0.0191
     21  CZ3       24.2650   -1.1390   20.3320 C.ar   33  TRP33       0.0001
     22  CH2       24.1050   -2.4470   19.8320 C.ar   33  TRP33       0.0015
     23  N         25.7050    7.3750   18.1990 N.3    50  GLU50      -0.1245
     24  CA        26.4050    6.1160   18.4030 C.3    50  GLU50       0.1567
     25  C         26.5140    5.3160   17.1220 C.2    50  GLU50       0.2260
     26  O         25.6230    5.3670   16.2770 O.2    50  GLU50      -0.2867
     27  CB        25.6760    5.2610   19.4440 C.3    50  GLU50       0.0388
     28  CG        26.2950    3.8660   19.6270 C.3    50  GLU50       0.1160
     29  CD        25.6000    3.0390   20.6900 C.2    50  GLU50       0.3649
     30  OE1       24.4290    2.6560   20.4760 O.co2  50  GLU50      -0.2457
     31  OE2       26.2280    2.7710   21.7390 O.co2  50  GLU50      -0.2457
     32  N         27.4550    1.3380   15.9220 N.3    52  ARG52      -0.1231
     33  CA        27.6730   -0.0240   16.3990 C.3    52  ARG52       0.1694
     34  C         28.8390   -0.6960   15.6960 C.2    52  ARG52       0.2592
     35  O         29.3930   -0.1390   14.7500 O.2    52  ARG52      -0.2718
     36  CB        26.3820   -0.8250   16.2130 C.3    52  ARG52       0.0321
     37  CG        25.2080   -0.1230   16.8670 C.3    52  ARG52       0.0489
     38  CD        23.9020   -0.8820   16.7530 C.3    52  ARG52       0.2205
     39  NE        22.8420   -0.1230   17.4070 N.pl3  52  ARG52      -0.0865
     40  CZ        21.5840   -0.5270   17.5220 C.cat  52  ARG52       0.5346
     41  NH1       21.2120   -1.6970   17.0220 N.pl3  52  ARG52       0.1354
     42  NH2       20.6960    0.2430   18.1420 N.pl3  52  ARG52       0.1354
     43  N         29.2250   -1.8840   16.1670 N.am   53  ASN53      -0.1974
     44  CA        30.3380   -2.5990   15.5530 C.3    53  ASN53       0.1688
     45  C         29.9130   -3.3000   14.2680 C.2    53  ASN53       0.2292
     46  O         28.7300   -3.3410   13.9320 O.2    53  ASN53      -0.2864
     47  CB        30.9570   -3.6210   16.5240 C.3    53  ASN53       0.1181
     48  CG        29.9430   -4.6210   17.0620 C.2    53  ASN53       0.2629
     49  OD1       28.9390   -4.9120   16.4190 O.2    53  ASN53      -0.2716
     50  ND2       30.2140   -5.1590   18.2470 N.am   53  ASN53      -0.0877
     51  N         27.2650   -5.8050   14.4110 N.3    56  ASN56      -0.1240
     52  CA        25.9360   -5.2450   14.5800 C.3    56  ASN56       0.1653
     53  C         25.5800   -4.2890   13.4480 C.2    56  ASN56       0.2266
     54  O         24.8310   -3.3370   13.6330 O.2    56  ASN56      -0.2867
     55  CB        25.8130   -4.5710   15.9510 C.3    56  ASN56       0.1155
     56  CG        25.5970   -5.5790   17.0730 C.2    56  ASN56       0.2627
     57  OD1       24.4590   -5.9300   17.4000 O.2    56  ASN56      -0.2716
     58  ND2       26.6900   -6.0690   17.6520 N.am   56  ASN56      -0.0877
     59  N         31.6190    1.4860   24.4760 N.3   101  VAL101     -0.1231
     60  CA        31.0200    0.4060   25.2420 C.3   101  VAL101      0.1678
     61  C         31.8110   -0.7610   24.6670 C.2   101  VAL101      0.2434
     62  O         31.5250   -1.2360   23.5660 O.2   101  VAL101     -0.2733
     63  CB        29.5310    0.2070   24.9280 C.3   101  VAL101      0.0265
     64  CG1       28.9890   -0.9670   25.7510 C.3   101  VAL101      0.0020
     65  CG2       28.7610    1.4690   25.2460 C.3   101  VAL101      0.0020
     66  N         32.8410   -1.2180   25.3920 N.am  102  PRO102     -0.2718
     67  CA        33.6760   -2.3270   24.9270 C.3   102  PRO102      0.1535
     68  C         32.9420   -3.6470   24.7340 C.2   102  PRO102      0.2598
     69  O         31.8110   -3.8120   25.1800 O.2   102  PRO102     -0.2715
     70  CB        34.7770   -2.3930   25.9860 C.3   102  PRO102      0.0310
     71  CG        34.0800   -1.9410   27.2180 C.3   102  PRO102      0.0237
     72  CD        33.2500   -0.7790   26.7380 C.3   102  PRO102      0.0939
     73  N         33.6070   -4.5800   24.0600 N.am  103  GLN103     -0.1978
     74  CA        33.0390   -5.8890   23.7560 C.3   103  GLN103      0.1601
     75  C         32.2260   -6.5390   24.8680 C.2   103  GLN103      0.2287
     76  O         31.1460   -7.0650   24.6110 O.2   103  GLN103     -0.2864
     77  CB        34.1420   -6.8490   23.3010 C.3   103  GLN103      0.0394
     78  CG        33.6360   -8.2300   22.8890 C.3   103  GLN103      0.0908
     79  CD        32.6430   -8.1920   21.7310 C.2   103  GLN103      0.2608
     80  OE1       32.1530   -9.2330   21.2870 O.2   103  GLN103     -0.2717
     81  NE2       32.3430   -6.9950   21.2390 N.am  103  GLN103     -0.0878
     82  N         30.6070   -5.1140   27.3240 N.3   105  GLY105     -0.1210
     83  CA        29.6710   -4.1950   27.9550 C.3   105  GLY105      0.1956
     84  C         30.2200   -3.1960   28.9580 C.2   105  GLY105      0.2612
     85  O         31.2030   -2.5080   28.6870 O.2   105  GLY105     -0.2717
     86  N         29.5640   -3.1110   30.1150 N.am  106  ARG106     -0.1965
     87  CA        29.9540   -2.1950   31.1870 C.3   106  ARG106      0.1729
     88  C         29.6390   -0.7380   30.8750 C.2   106  ARG106      0.2616
     89  O         30.3960    0.1570   31.2510 O.2   106  ARG106     -0.2715
     90  CB        31.4490   -2.3230   31.4970 C.3   106  ARG106      0.0348
     91  CG        31.8430   -3.6350   32.1340 C.3   106  ARG106      0.0492
     92  CD        32.9300   -4.3060   31.3280 C.3   106  ARG106      0.2205
     93  NE        34.0730   -3.4240   31.1120 N.pl3 106  ARG106     -0.0865
     94  CZ        35.0920   -3.7190   30.3130 C.cat 106  ARG106      0.5346
     95  NH1       35.1040   -4.8730   29.6610 N.pl3 106  ARG106      0.1354
     96  NH2       36.0910   -2.8630   30.1580 N.pl3 106  ARG106      0.1354
     97  N         28.5190   -0.5000   30.1990 N.am  107  GLY107     -0.1955
     98  CA        28.1400    0.8620   29.8610 C.3   107  GLY107      0.1869
     99  C         29.2870    1.6180   29.2160 C.2   107  GLY107      0.2309
    100  O         30.1350    1.0120   28.5550 O.2   107  GLY107     -0.2863
@<TRIPOS>BOND
     1    53    54    2
     2    53    52    1
     3    46    45    2
     4    45    44    1
     5    51    52    1
     6    52    55    1
     7    35    34    2
     8    44    43    1
     9    44    47    1
    10    34    43   am
    11    34    33    1
    12    32    33    1
    13    55    56    1
    14    36    33    1
    15    36    37    1
    16    26    25    2
    17    49    48    2
    18    47    48    1
    19    38    37    1
    20    38    39    1
    21    41    40    1
    22    48    50   am
    23    56    57    2
    24    56    58   am
    25    25    24    1
    26    39    40    2
    27    40    42    1
    28     7     6   ar
    29     1     2    1
    30    23    24    1
    31    24    27    1
    32     2     3    1
    33     2     5    1
    34     6     8   ar
    35     6     5    1
    36    17    18   ar
    37    17    15   ar
    38    27    28    1
    39    20    18   ar
    40    20    22   ar
    41    18    16   ar
    42    15    14   ar
    43     3     4    2
    44    28    29    1
    45    22    21   ar
    46    10    11    1
    47    10     9    1
    48    10    13    1
    49    14    16   ar
    50    14    13    1
    51    16    19   ar
    52    21    19   ar
    53    11    12    2
    54    30    29   ar
    55    29    31   ar
    56    81    79   am
    57    80    79    2
    58    79    78    1
    59    78    77    1
    60    77    74    1
    61    62    61    2
    62    74    73    1
    63    74    75    1
    64    73    68   am
    65    59    60    1
    66    76    75    2
    67    61    60    1
    68    61    66   am
    69    68    67    1
    70    68    69    2
    71    67    66    1
    72    67    70    1
    73    63    60    1
    74    63    65    1
    75    63    64    1
    76    66    72    1
    77    70    71    1
    78    72    71    1
    79    82    83    1
    80    83    84    1
    81   100    99    2
    82    85    84    2
    83    84    86   am
    84    99    98    1
    85    95    94    1
    86    98    97    1
    87    86    87    1
    88    96    94    1
    89    97    88   am
    90    94    93    2
    91    88    87    1
    92    88    89    2
    93    93    92    1
    94    87    90    1
    95    92    91    1
    96    90    91    1
