@<TRIPOS>MOLECULE
tmp/1q78A00.pdb
 143 132 0 0 0
SMALL
GASTEIGER

@<TRIPOS>ATOM
      1  N         35.3980   50.5120  -16.1560 N.3    81  PHE81      -0.1227
      2  CA        34.0450   50.4380  -16.6830 C.3    81  PHE81       0.1736
      3  C         33.6200   48.9900  -16.7780 C.2    81  PHE81       0.2596
      4  O         34.3980   48.0950  -16.4620 O.2    81  PHE81      -0.2718
      5  CB        33.9170   51.1380  -18.0510 C.3    81  PHE81       0.0547
      6  CG        34.8210   50.5950  -19.1330 C.ar   81  PHE81      -0.0202
      7  CD1       36.1970   50.7820  -19.0770 C.ar   81  PHE81      -0.0042
      8  CD2       34.2840   49.9690  -20.2520 C.ar   81  PHE81      -0.0042
      9  CE1       37.0180   50.3620  -20.1190 C.ar   81  PHE81      -0.0003
     10  CE2       35.0940   49.5450  -21.2960 C.ar   81  PHE81      -0.0003
     11  CZ        36.4640   49.7440  -21.2280 C.ar   81  PHE81      -0.0000
     12  N         32.3830   48.7530  -17.1880 N.am   82  GLY82      -0.1942
     13  CA        31.9190   47.3870  -17.3040 C.3    82  GLY82       0.2014
     14  C         31.6340   46.8010  -15.9420 C.2    82  GLY82       0.2639
     15  O         31.8020   47.4790  -14.9300 O.2    82  GLY82      -0.2714
     16  N         31.2290   45.5330  -15.9240 N.am   83  SER83      -0.1949
     17  CA        30.8770   44.8150  -14.7030 C.3    83  SER83       0.1924
     18  C         31.6810   45.1330  -13.4400 C.2    83  SER83       0.2314
     19  O         31.0970   45.3080  -12.3680 O.2    83  SER83      -0.2863
     20  CB        30.9030   43.3090  -14.9660 C.3    83  SER83       0.2116
     21  OG        32.1880   42.8870  -15.3850 O.3    83  SER83      -0.2180
     22  N         30.6890   48.3490  -12.3080 N.3    86  LEU86      -0.1245
     23  CA        29.2700   48.2820  -11.9930 C.3    86  LEU86       0.1561
     24  C         29.0600   47.6660  -10.6200 C.2    86  LEU86       0.2260
     25  O         28.0500   47.9020   -9.9790 O.2    86  LEU86      -0.2867
     26  CB        28.5310   47.4630  -13.0500 C.3    86  LEU86       0.0270
     27  CG        28.2140   48.2010  -14.3580 C.3    86  LEU86       0.0019
     28  CD1       27.5330   47.2590  -15.3430 C.3    86  LEU86       0.0001
     29  CD2       27.3130   49.4060  -14.0570 C.3    86  LEU86       0.0001
     30  N         36.3140   37.2100  -13.0600 N.3    93  ALA93      -0.1231
     31  CA        36.0140   38.1520  -14.1350 C.3    93  ALA93       0.1694
     32  C         37.1720   39.1150  -14.4080 C.2    93  ALA93       0.2592
     33  O         37.9200   39.4770  -13.5050 O.2    93  ALA93      -0.2718
     34  CB        34.7540   38.9310  -13.8030 C.3    93  ALA93       0.0304
     35  N         37.3200   39.5210  -15.6630 N.am   94  ASP94      -0.1974
     36  CA        38.3810   40.4420  -16.0420 C.3    94  ASP94       0.1709
     37  C         37.9870   41.9020  -15.7820 C.2    94  ASP94       0.2293
     38  O         36.8020   42.2210  -15.6620 O.2    94  ASP94      -0.2864
     39  CB        38.7420   40.2510  -17.5200 C.3    94  ASP94       0.1436
     40  CG        37.5400   40.3580  -18.4370 C.2    94  ASP94       0.3671
     41  OD1       36.4620   40.8010  -17.9770 O.co2  94  ASP94      -0.2456
     42  OD2       37.6750   40.0070  -19.6320 O.co2  94  ASP94      -0.2456
     43  N         37.9390   45.9130  -16.9540 N.3    96  ASP96      -0.1239
     44  CA        37.9810   46.8060  -18.1100 C.3    96  ASP96       0.1674
     45  C         38.3980   48.2020  -17.6640 C.2    96  ASP96       0.2266
     46  O         37.7200   48.8380  -16.8510 O.2    96  ASP96      -0.2867
     47  CB        36.6170   46.8570  -18.7930 C.3    96  ASP96       0.1410
     48  CG        36.2630   45.5550  -19.4750 C.2    96  ASP96       0.3668
     49  OD1       37.0530   45.1140  -20.3380 O.co2  96  ASP96      -0.2456
     50  OD2       35.2010   44.9760  -19.1500 O.co2  96  ASP96      -0.2456
     51  N         33.7350   55.6400  -25.0450 N.3   182  ASN182     -0.1225
     52  CA        32.3760   55.1320  -24.9840 C.3   182  ASN182      0.1785
     53  C         32.0490   54.2480  -23.7760 C.2   182  ASN182      0.2597
     54  O         31.0580   54.4780  -23.0830 O.2   182  ASN182     -0.2718
     55  CB        32.0580   54.3810  -26.2680 C.3   182  ASN182      0.1169
     56  CG        30.6000   54.0510  -26.3820 C.2   182  ASN182      0.2627
     57  OD1       29.7500   54.9370  -26.2940 O.2   182  ASN182     -0.2716
     58  ND2       30.2900   52.7710  -26.5770 N.am  182  ASN182     -0.0877
     59  N         32.8820   53.2400  -23.5340 N.am  183  GLY183     -0.1957
     60  CA        32.6650   52.3330  -22.4190 C.3   183  GLY183      0.1869
     61  C         32.4250   52.9970  -21.0770 C.2   183  GLY183      0.2309
     62  O         31.4140   52.7320  -20.4300 O.2   183  GLY183     -0.2863
     63  N         29.1310   55.1140  -21.0650 N.3   186  VAL186     -0.1231
     64  CA        27.9320   54.2850  -20.9920 C.3   186  VAL186      0.1692
     65  C         27.7310   53.7400  -19.5830 C.2   186  VAL186      0.2592
     66  O         26.6120   53.7170  -19.0710 O.2   186  VAL186     -0.2718
     67  CB        28.0200   53.1120  -21.9830 C.3   186  VAL186      0.0266
     68  CG1       26.7930   52.2450  -21.8810 C.3   186  VAL186      0.0020
     69  CG2       28.1720   53.6440  -23.3870 C.3   186  VAL186      0.0020
     70  N         28.8170   53.2970  -18.9580 N.am  187  THR187     -0.1953
     71  CA        28.7410   52.7700  -17.6060 C.3   187  THR187      0.1897
     72  C         28.3870   53.8910  -16.6440 C.2   187  THR187      0.2313
     73  O         27.4470   53.7750  -15.8520 O.2   187  THR187     -0.2863
     74  CB        30.0770   52.1440  -17.1570 C.3   187  THR187      0.1794
     75  OG1       30.3540   50.9940  -17.9550 O.3   187  THR187     -0.2208
     76  CG2       30.0170   51.7280  -15.6920 C.3   187  THR187      0.0378
     77  N         22.1060   38.1900  -14.6790 N.3   208  LYS208     -0.1245
     78  CA        23.2040   37.6560  -15.4620 C.3   208  LYS208      0.1561
     79  C         23.4140   36.1580  -15.2190 C.2   208  LYS208      0.2260
     80  O         23.6670   35.4100  -16.1560 O.2   208  LYS208     -0.2867
     81  CB        24.4800   38.4530  -15.1900 C.3   208  LYS208      0.0271
     82  CG        24.4760   39.8160  -15.8770 C.3   208  LYS208      0.0035
     83  CD        25.6630   40.6830  -15.4830 C.3   208  LYS208      0.0206
     84  CE        26.9860   40.1320  -16.0040 C.3   208  LYS208      0.1093
     85  NZ        28.1290   40.9730  -15.5630 N.3   208  LYS208     -0.1314
     86  N         23.0590   33.3030  -18.1490 N.3   212  LYS212     -0.1245
     87  CA        24.1440   32.3930  -18.4490 C.3   212  LYS212      0.1561
     88  C         23.6720   30.9620  -18.3120 C.2   212  LYS212      0.2260
     89  O         23.9430   30.1270  -19.1740 O.2   212  LYS212     -0.2867
     90  CB        25.3300   32.6480  -17.5190 C.3   212  LYS212      0.0271
     91  CG        26.0190   33.9740  -17.7710 C.3   212  LYS212      0.0035
     92  CD        27.3520   34.0910  -17.0550 C.3   212  LYS212      0.0206
     93  CE        28.1300   35.2750  -17.6110 C.3   212  LYS212      0.1093
     94  NZ        29.5200   35.4110  -17.0870 N.3   212  LYS212     -0.1314
     95  N         23.4390   34.0440  -23.0310 N.3   217  TYR217     -0.1241
     96  CA        24.3820   35.0750  -22.6360 C.3   217  TYR217      0.1605
     97  C         25.5890   35.0610  -23.5760 C.2   217  TYR217      0.2264
     98  O         26.5530   34.3090  -23.3750 O.2   217  TYR217     -0.2867
     99  CB        24.8130   34.8490  -21.1850 C.3   217  TYR217      0.0534
    100  CG        25.6440   35.9700  -20.6080 C.ar  217  TYR217     -0.0201
    101  CD1       26.9300   36.2290  -21.0880 C.ar  217  TYR217     -0.0009
    102  CD2       25.1450   36.7890  -19.5930 C.ar  217  TYR217     -0.0009
    103  CE1       27.7010   37.2790  -20.5790 C.ar  217  TYR217      0.0417
    104  CE2       25.9090   37.8460  -19.0750 C.ar  217  TYR217      0.0417
    105  CZ        27.1860   38.0820  -19.5800 C.ar  217  TYR217      0.1957
    106  OH        27.9430   39.1310  -19.1180 O.3   217  TYR217     -0.2866
    107  N         24.9960   40.5670  -24.1620 N.3   225  GLY225     -0.1210
    108  CA        26.2210   40.6460  -23.3880 C.3   225  GLY225      0.1956
    109  C         26.0240   41.5240  -22.1540 C.2   225  GLY225      0.2612
    110  O         24.9960   42.1990  -22.0120 O.2   225  GLY225     -0.2717
    111  N         27.0100   41.5180  -21.2620 N.am  226  GLY226     -0.1942
    112  CA        26.9300   42.3080  -20.0490 C.3   226  GLY226      0.2014
    113  C         26.2190   43.6500  -20.1230 C.2   226  GLY226      0.2638
    114  O         25.2770   43.8860  -19.3690 O.2   226  GLY226     -0.2714
    115  N         26.6630   44.5260  -21.0190 N.am  227  VAL227     -0.1977
    116  CA        26.0760   45.8550  -21.1680 C.3   227  VAL227      0.1596
    117  C         24.5760   45.8150  -21.4380 C.2   227  VAL227      0.2287
    118  O         23.7970   46.5440  -20.8100 O.2   227  VAL227     -0.2864
    119  CB        26.7260   46.6340  -22.3290 C.3   227  VAL227      0.0276
    120  CG1       26.3250   48.0890  -22.2720 C.3   227  VAL227      0.0022
    121  CG2       28.2140   46.5130  -22.2620 C.3   227  VAL227      0.0022
    122  N         22.2800   52.5460  -26.2690 N.3   297  THR297     -0.1218
    123  CA        23.2800   53.1260  -25.3790 C.3   297  THR297      0.1862
    124  C         22.8880   54.5730  -25.0300 C.2   297  THR297      0.2287
    125  O         22.5520   55.3690  -25.9090 O.2   297  THR297     -0.2866
    126  CB        24.6720   53.0930  -26.0460 C.3   297  THR297      0.1770
    127  OG1       25.1240   51.7380  -26.1290 O.3   297  THR297     -0.2211
    128  CG2       25.6680   53.8820  -25.2360 C.3   297  THR297      0.0375
    129  N         23.9530   54.0470  -29.6850 N.3   303  GLN303     -0.1245
    130  CA        24.0350   52.9350  -30.6150 C.3   303  GLN303      0.1566
    131  C         23.2210   51.7620  -30.1010 C.2   303  GLN303      0.2260
    132  O         22.9710   51.6590  -28.9060 O.2   303  GLN303     -0.2867
    133  CB        25.4860   52.5000  -30.7520 C.3   303  GLN303      0.0367
    134  CG        26.3400   53.4100  -31.6000 C.3   303  GLN303      0.0905
    135  CD        25.9640   53.3310  -33.0720 C.2   303  GLN303      0.2608
    136  OE1       25.7950   52.2390  -33.6240 O.2   303  GLN303     -0.2717
    137  NE2       25.8420   54.4870  -33.7190 N.am  303  GLN303     -0.0878
    138  N         23.0410   48.2890  -28.8780 N.3   305  SER305     -0.1217
    139  CA        23.9660   47.3150  -28.3310 C.3   305  SER305      0.1889
    140  C         23.6800   45.8930  -28.7790 C.2   305  SER305      0.2288
    141  O         24.4600   44.9840  -28.4840 O.2   305  SER305     -0.2866
    142  CB        23.9010   47.3450  -26.8120 C.3   305  SER305      0.2089
    143  OG        22.6380   46.8790  -26.3740 O.3   305  SER305     -0.2183
@<TRIPOS>BOND
     1   137   135   am
     2   136   135    2
     3   135   134    1
     4   134   133    1
     5   133   130    1
     6   130   131    1
     7   130   129    1
     8   131   132    2
     9   138   139    1
    10   140   141    2
    11   140   139    1
    12   139   142    1
    13   142   143    1
    14    58    56   am
    15    56    57    2
    16    56    55    1
    17   122   123    1
    18    55    52    1
    19   127   126    1
    20   126   123    1
    21   126   128    1
    22   125   124    2
    23   123   124    1
    24    51    52    1
    25    52    53    1
    26   107   108    1
    27    53    59   am
    28    53    54    2
    29    97    98    2
    30    97    96    1
    31    59    60    1
    32   108   109    1
    33    69    67    1
    34    95    96    1
    35    96    99    1
    36    60    61    1
    37   119   120    1
    38   119   121    1
    39   119   116    1
    40   109   110    2
    41   109   111   am
    42    67    68    1
    43    67    64    1
    44   117   116    1
    45   117   118    2
    46    10    11   ar
    47    10     8   ar
    48   111   112    1
    49    11     9   ar
    50    99   100    1
    51   116   115    1
    52   101   100   ar
    53   101   103   ar
    54    61    62    2
    55    63    64    1
    56   115   113   am
    57    64    65    1
    58   100   102   ar
    59   103   105   ar
    60    49    48   ar
    61     8     6   ar
    62   113   112    1
    63   113   114    2
    64     9     7   ar
    65    42    40   ar
    66   102   104   ar
    67    65    66    2
    68    65    70   am
    69   105   106    1
    70   105   104   ar
    71    48    50   ar
    72    48    47    1
    73    89    88    2
    74     6     7   ar
    75     6     5    1
    76    70    71    1
    77    47    44    1
    78    87    88    1
    79    87    86    1
    80    87    90    1
    81    40    41   ar
    82    40    39    1
    83    44    45    1
    84    44    43    1
    85     5     2    1
    86    75    74    1
    87    91    90    1
    88    91    92    1
    89    45    46    2
    90    93    94    1
    91    93    92    1
    92    71    74    1
    93    71    72    1
    94    39    36    1
    95    13    12    1
    96    13    14    1
    97    12     3   am
    98    74    76    1
    99     3     2    1
   100     3     4    2
   101     2     1    1
   102    72    73    2
   103    80    79    2
   104    36    37    1
   105    36    35    1
   106    84    85    1
   107    84    83    1
   108    14    16   am
   109    14    15    2
   110    16    17    1
   111    82    83    1
   112    82    81    1
   113    37    38    2
   114    35    32   am
   115    78    79    1
   116    78    81    1
   117    78    77    1
   118    21    20    1
   119    28    27    1
   120    20    17    1
   121    17    18    1
   122    32    31    1
   123    32    33    2
   124    27    29    1
   125    27    26    1
   126    31    34    1
   127    31    30    1
   128    18    19    2
   129    26    23    1
   130    22    23    1
   131    23    24    1
   132    24    25    2
