@<TRIPOS>MOLECULE
tmp/1q79A00.pdb
 130 119 0 0 0
SMALL
GASTEIGER

@<TRIPOS>ATOM
      1  N         36.2340   50.0400  -16.0780 N.3    81  PHE81      -0.1227
      2  CA        34.8950   50.0020  -16.6540 C.3    81  PHE81       0.1736
      3  C         34.4840   48.5400  -16.7740 C.2    81  PHE81       0.2596
      4  O         35.1770   47.6650  -16.2640 O.2    81  PHE81      -0.2718
      5  CB        34.8430   50.7120  -18.0200 C.3    81  PHE81       0.0547
      6  CG        35.7340   50.1040  -19.0830 C.ar   81  PHE81      -0.0202
      7  CD1       37.0970   50.3810  -19.1140 C.ar   81  PHE81      -0.0042
      8  CD2       35.2010   49.2780  -20.0700 C.ar   81  PHE81      -0.0042
      9  CE1       37.9140   49.8510  -20.1130 C.ar   81  PHE81      -0.0003
     10  CE2       36.0080   48.7410  -21.0730 C.ar   81  PHE81      -0.0003
     11  CZ        37.3690   49.0300  -21.0940 C.ar   81  PHE81      -0.0000
     12  N         33.3480   48.2720  -17.4050 N.am   82  GLY82      -0.1942
     13  CA        32.9090   46.8940  -17.5480 C.3    82  GLY82       0.2014
     14  C         32.4290   46.2110  -16.2710 C.2    82  GLY82       0.2639
     15  O         32.0790   46.8710  -15.2920 O.2    82  GLY82      -0.2714
     16  N         32.4350   44.8800  -16.2750 N.am   83  SER83      -0.1949
     17  CA        31.9540   44.1040  -15.1310 C.3    83  SER83       0.1924
     18  C         32.6270   44.4120  -13.7920 C.2    83  SER83       0.2314
     19  O         31.9430   44.5280  -12.7700 O.2    83  SER83      -0.2863
     20  CB        32.0390   42.5990  -15.4310 C.3    83  SER83       0.2116
     21  OG        33.3690   42.1130  -15.3560 O.3    83  SER83      -0.2180
     22  N         37.9140   34.8790  -11.9290 N.3    92  GLY92      -0.1210
     23  CA        38.4600   34.5540  -13.2350 C.3    92  GLY92       0.1956
     24  C         38.2820   35.6480  -14.2750 C.2    92  GLY92       0.2612
     25  O         38.8780   35.5920  -15.3560 O.2    92  GLY92      -0.2717
     26  N         37.4630   36.6480  -13.9540 N.am   93  ALA93      -0.1965
     27  CA        37.2110   37.7500  -14.8770 C.3    93  ALA93       0.1728
     28  C         38.3860   38.7190  -14.8900 C.2    93  ALA93       0.2616
     29  O         39.0510   38.9200  -13.8730 O.2    93  ALA93      -0.2715
     30  CB        35.9340   38.4840  -14.4830 C.3    93  ALA93       0.0334
     31  N         38.6410   39.3160  -16.0490 N.am   94  ASP94      -0.1971
     32  CA        39.7320   40.2690  -16.1800 C.3    94  ASP94       0.1709
     33  C         39.2950   41.6160  -15.6140 C.2    94  ASP94       0.2293
     34  O         38.1960   41.7570  -15.0700 O.2    94  ASP94      -0.2864
     35  CB        40.1160   40.4430  -17.6550 C.3    94  ASP94       0.1436
     36  CG        39.0460   41.1820  -18.4580 C.2    94  ASP94       0.3671
     37  OD1       38.0130   41.5610  -17.8680 O.co2  94  ASP94      -0.2456
     38  OD2       39.2380   41.3880  -19.6750 O.co2  94  ASP94      -0.2456
     39  N         39.0510   45.5130  -16.9280 N.3    96  ASP96      -0.1239
     40  CA        39.1560   46.4030  -18.0770 C.3    96  ASP96       0.1674
     41  C         39.4470   47.7940  -17.5640 C.2    96  ASP96       0.2266
     42  O         38.7060   48.3250  -16.7330 O.2    96  ASP96      -0.2867
     43  CB        37.8580   46.3930  -18.8800 C.3    96  ASP96       0.1410
     44  CG        37.4430   45.0000  -19.2780 C.2    96  ASP96       0.3668
     45  OD1       38.0310   44.4500  -20.2310 O.co2  96  ASP96      -0.2456
     46  OD2       36.5380   44.4450  -18.6210 O.co2  96  ASP96      -0.2456
     47  N         39.9070   48.4560  -31.2120 N.3   135  VAL135     -0.1245
     48  CA        40.2030   49.2040  -29.9990 C.3   135  VAL135      0.1561
     49  C         41.5900   48.7510  -29.5370 C.2   135  VAL135      0.2260
     50  O         41.7320   47.6850  -28.9400 O.2   135  VAL135     -0.2867
     51  CB        39.1780   48.8990  -28.8860 C.3   135  VAL135      0.0252
     52  CG1       39.4630   49.7670  -27.6670 C.3   135  VAL135      0.0019
     53  CG2       37.7670   49.1440  -29.3950 C.3   135  VAL135      0.0019
     54  N         44.8590   47.8570  -27.5860 N.3   137  VAL137     -0.1245
     55  CA        44.9810   47.4400  -26.1970 C.3   137  VAL137      0.1561
     56  C         46.2990   46.7360  -25.8860 C.2   137  VAL137      0.2260
     57  O         46.9670   46.1990  -26.7730 O.2   137  VAL137     -0.2867
     58  CB        43.8240   46.4750  -25.8220 C.3   137  VAL137      0.0252
     59  CG1       43.9610   45.1830  -26.6080 C.3   137  VAL137      0.0019
     60  CG2       43.8330   46.1820  -24.3320 C.3   137  VAL137      0.0019
     61  N         47.5510   43.7870  -23.3590 N.3   139  LYS139     -0.1245
     62  CA        47.0400   42.7470  -22.4770 C.3   139  LYS139      0.1561
     63  C         48.1660   42.1610  -21.6210 C.2   139  LYS139      0.2260
     64  O         49.3020   42.0100  -22.0820 O.2   139  LYS139     -0.2867
     65  CB        46.3750   41.6450  -23.3040 C.3   139  LYS139      0.0271
     66  CG        45.2300   42.1430  -24.1860 C.3   139  LYS139      0.0035
     67  CD        44.6500   41.0250  -25.0470 C.3   139  LYS139      0.0206
     68  CE        43.8260   40.0330  -24.2290 C.3   139  LYS139      0.1093
     69  NZ        42.4930   40.5870  -23.8300 N.3   139  LYS139     -0.1314
     70  N         44.2560   38.9940  -14.9450 N.3   145  GLU145     -0.1245
     71  CA        44.3040   39.4540  -16.3270 C.3   145  GLU145      0.1567
     72  C         43.8350   40.8990  -16.4160 C.2   145  GLU145      0.2260
     73  O         42.7950   41.2650  -15.8640 O.2   145  GLU145     -0.2867
     74  CB        43.4310   38.5720  -17.2200 C.3   145  GLU145      0.0388
     75  CG        44.0300   37.2030  -17.4980 C.3   145  GLU145      0.1160
     76  CD        43.1410   36.3430  -18.3770 C.2   145  GLU145      0.3649
     77  OE1       42.0300   35.9750  -17.9290 O.co2 145  GLU145     -0.2457
     78  OE2       43.5510   36.0380  -19.5200 O.co2 145  GLU145     -0.2457
     79  N         43.2040   44.2930  -19.0860 N.3   147  ASP147     -0.1239
     80  CA        43.0170   44.8300  -20.4330 C.3   147  ASP147      0.1674
     81  C         43.1940   46.3310  -20.2720 C.2   147  ASP147      0.2266
     82  O         42.3980   46.9640  -19.5830 O.2   147  ASP147     -0.2867
     83  CB        41.5920   44.5510  -20.9390 C.3   147  ASP147      0.1410
     84  CG        41.5240   43.3700  -21.8840 C.2   147  ASP147      0.3668
     85  OD1       42.5900   42.8700  -22.2920 O.co2 147  ASP147     -0.2456
     86  OD2       40.3990   42.9450  -22.2270 O.co2 147  ASP147     -0.2456
     87  N         43.3470   50.0090  -22.1440 N.3   149  LEU149     -0.1245
     88  CA        43.1010   50.8160  -23.3430 C.3   149  LEU149      0.1561
     89  C         43.7490   52.1820  -23.1480 C.2   149  LEU149      0.2260
     90  O         44.1430   52.5290  -22.0310 O.2   149  LEU149     -0.2867
     91  CB        41.5910   50.9860  -23.5840 C.3   149  LEU149      0.0270
     92  CG        40.7740   49.7750  -24.0520 C.3   149  LEU149      0.0019
     93  CD1       40.8960   48.6330  -23.0520 C.3   149  LEU149      0.0001
     94  CD2       39.3080   50.1840  -24.2020 C.3   149  LEU149      0.0001
     95  N         33.6790   52.4550  -23.6770 N.3   182  GLY182     -0.1225
     96  CA        33.4570   51.5370  -22.5700 C.3   182  GLY182      0.1811
     97  C         33.2640   52.2180  -21.2250 C.2   182  GLY182      0.2280
     98  O         32.3090   51.9130  -20.5010 O.2   182  GLY182     -0.2866
     99  N         22.6280   37.5860  -14.6370 N.3   207  LYS207     -0.1245
    100  CA        23.7420   37.0700  -15.4290 C.3   207  LYS207      0.1561
    101  C         23.9630   35.5800  -15.1980 C.2   207  LYS207      0.2260
    102  O         24.2780   34.8520  -16.1390 O.2   207  LYS207     -0.2867
    103  CB        25.0430   37.8270  -15.1290 C.3   207  LYS207      0.0271
    104  CG        25.0620   39.2540  -15.6610 C.3   207  LYS207      0.0035
    105  CD        26.3970   39.9540  -15.4240 C.3   207  LYS207      0.0206
    106  CE        27.4930   39.4280  -16.3550 C.3   207  LYS207      0.1093
    107  NZ        28.7120   40.3100  -16.3500 N.3   207  LYS207     -0.1314
    108  N         23.8020   33.2540  -22.9380 N.3   216  TYR216     -0.1241
    109  CA        24.7800   34.2720  -22.5970 C.3   216  TYR216      0.1605
    110  C         25.9170   34.2610  -23.6070 C.2   216  TYR216      0.2264
    111  O         26.7960   33.3980  -23.5460 O.2   216  TYR216     -0.2867
    112  CB        25.3370   34.0320  -21.1960 C.3   216  TYR216      0.0534
    113  CG        26.1860   35.1760  -20.6880 C.ar  216  TYR216     -0.0201
    114  CD1       27.4700   35.4040  -21.1930 C.ar  216  TYR216     -0.0009
    115  CD2       25.6940   36.0450  -19.7160 C.ar  216  TYR216     -0.0009
    116  CE1       28.2450   36.4790  -20.7380 C.ar  216  TYR216      0.0417
    117  CE2       26.4520   37.1150  -19.2560 C.ar  216  TYR216      0.0417
    118  CZ        27.7230   37.3280  -19.7690 C.ar  216  TYR216      0.1957
    119  OH        28.4590   38.3900  -19.3120 O.3   216  TYR216     -0.2866
    120  N         27.5190   40.7650  -21.4100 N.3   225  GLY225     -0.1210
    121  CA        27.4600   41.4370  -20.1200 C.3   225  GLY225      0.1956
    122  C         26.8370   42.8260  -20.1030 C.2   225  GLY225      0.2611
    123  O         25.9570   43.1040  -19.2880 O.2   225  GLY225     -0.2717
    124  N         27.2900   43.7060  -20.9910 N.am  226  VAL226     -0.1979
    125  CA        26.7630   45.0670  -21.0410 C.3   226  VAL226      0.1595
    126  C         25.2680   45.0930  -21.3450 C.2   226  VAL226      0.2287
    127  O         24.5120   45.8550  -20.7310 O.2   226  VAL226     -0.2864
    128  CB        27.5010   45.9340  -22.0970 C.3   226  VAL226      0.0276
    129  CG1       26.9980   47.3670  -22.0310 C.3   226  VAL226      0.0022
    130  CG2       29.0030   45.9110  -21.8450 C.3   226  VAL226      0.0022
@<TRIPOS>BOND
     1    47    48    1
     2    48    49    1
     3    48    51    1
     4    49    50    2
     5    53    51    1
     6    51    52    1
     7    54    55    1
     8    57    56    2
     9    59    58    1
    10    55    56    1
    11    55    58    1
    12    58    60    1
    13    67    68    1
    14    67    66    1
    15    68    69    1
    16    94    92    1
    17    66    65    1
    18    92    91    1
    19    92    93    1
    20    95    96    1
    21   110   111    2
    22   110   109    1
    23    91    88    1
    24    61    62    1
    25    88    89    1
    26    88    87    1
    27    65    62    1
    28    89    90    2
    29   108   109    1
    30   109   112    1
    31    96    97    1
    32    62    63    1
    33    85    84   ar
    34    86    84   ar
    35   128   129    1
    36   128   130    1
    37   128   125    1
    38    64    63    2
    39    84    83    1
    40   120   121    1
    41   126   125    1
    42   126   127    2
    43    97    98    2
    44   112   113    1
    45   114   116   ar
    46   114   113   ar
    47    11    10   ar
    48    11     9   ar
    49    10     8   ar
    50   125   124    1
    51   124   122   am
    52    83    80    1
    53   116   118   ar
    54   113   115   ar
    55    80    81    1
    56    80    79    1
    57    81    82    2
    58    45    44   ar
    59   121   122    1
    60     9     7   ar
    61   122   123    2
    62     8     6   ar
    63   118   119    1
    64   118   117   ar
    65   115   117   ar
    66    38    36   ar
    67    78    76   ar
    68    44    43    1
    69    44    46   ar
    70     7     6   ar
    71     6     5    1
    72    43    40    1
    73    36    37   ar
    74    36    35    1
    75    76    77   ar
    76    76    75    1
    77    40    41    1
    78    40    39    1
    79     5     2    1
    80    35    32    1
    81    41    42    2
    82    13    12    1
    83    13    14    1
    84    75    74    1
    85    12     3   am
    86    74    71    1
    87     3     2    1
    88     3     4    2
    89     2     1    1
    90    72    71    1
    91    72    73    2
    92   106   107    1
    93   106   105    1
    94    71    70    1
    95    16    14   am
    96    16    17    1
    97    14    15    2
    98    32    31    1
    99    32    33    1
   100   102   101    2
   101    31    28   am
   102   104   105    1
   103   104   103    1
   104    33    34    2
   105    20    21    1
   106    20    17    1
   107   100   101    1
   108   100   103    1
   109   100    99    1
   110    25    24    2
   111    17    18    1
   112    28    27    1
   113    28    29    2
   114    27    30    1
   115    27    26    1
   116    24    26   am
   117    24    23    1
   118    18    19    2
   119    23    22    1
