@<TRIPOS>MOLECULE
tmp/1q7aA00.pdb
 132 129 0 0 0
SMALL
GASTEIGER

@<TRIPOS>ATOM
      1  N         10.8630   16.2040   -5.6380 N.3     2  LEU2       -0.1245
      2  CA         9.5040   16.6950   -5.4570 C.3     2  LEU2        0.1561
      3  C          8.5900   15.7200   -4.7170 C.2     2  LEU2        0.2260
      4  O          7.7450   16.1370   -3.9230 O.2     2  LEU2       -0.2867
      5  CB         8.8970   17.0470   -6.8170 C.3     2  LEU2        0.0270
      6  CG         8.7010   18.5300   -7.1390 C.3     2  LEU2        0.0019
      7  CD1        9.9580   19.3250   -6.8370 C.3     2  LEU2        0.0001
      8  CD2        8.3190   18.6620   -8.6000 C.3     2  LEU2        0.0001
      9  N          9.3780   15.9600   -0.9190 N.3     5  PHE5       -0.1227
     10  CA         9.0040   17.2560   -0.3930 C.3     5  PHE5        0.1736
     11  C          7.4860   17.2280   -0.2430 C.2     5  PHE5        0.2596
     12  O          6.9360   17.7220    0.7400 O.2     5  PHE5       -0.2718
     13  CB         9.4450   18.3620   -1.3550 C.3     5  PHE5        0.0547
     14  CG         9.1590   19.7520   -0.8590 C.ar    5  PHE5       -0.0202
     15  CD1        9.3290   20.0740    0.4830 C.ar    5  PHE5       -0.0042
     16  CD2        8.7400   20.7430   -1.7340 C.ar    5  PHE5       -0.0042
     17  CE1        9.0880   21.3640    0.9430 C.ar    5  PHE5       -0.0003
     18  CE2        8.4960   22.0370   -1.2830 C.ar    5  PHE5       -0.0003
     19  CZ         8.6700   22.3470    0.0580 C.ar    5  PHE5       -0.0000
     20  N          6.8160   16.6140   -1.2150 N.am    6  GLY6       -0.1957
     21  CA         5.3660   16.5160   -1.1700 C.3     6  GLY6        0.1869
     22  C          4.8690   15.7400    0.0340 C.2     6  GLY6        0.2309
     23  O          3.8850   16.1190    0.6660 O.2     6  GLY6       -0.2863
     24  N          5.4450   17.7340    3.2320 N.3     9  ILE9       -0.1245
     25  CA         4.4150   18.7540    3.3830 C.3     9  ILE9        0.1561
     26  C          3.1150   18.1520    3.9050 C.2     9  ILE9        0.2260
     27  O          2.4720   18.7210    4.7850 O.2     9  ILE9       -0.2867
     28  CB         4.1400   19.4640    2.0440 C.3     9  ILE9        0.0252
     29  CG1        5.3580   20.3040    1.6510 C.3     9  ILE9        0.0019
     30  CG2        2.9020   20.3400    2.1520 C.3     9  ILE9        0.0019
     31  CD1        5.2210   21.0150    0.3180 C.3     9  ILE9        0.0001
     32  N          0.2520   18.7770   -1.0100 N.3    17  ALA17      -0.1231
     33  CA         1.1250   19.7990   -1.6080 C.3    17  ALA17       0.1694
     34  C          0.5830   20.2600   -2.9530 C.2    17  ALA17       0.2591
     35  O          0.7030   21.4290   -3.3260 O.2    17  ALA17      -0.2718
     36  CB         2.5410   19.2530   -1.7710 C.3    17  ALA17       0.0304
     37  N          0.0080   19.2560   -3.6880 N.am   18  ILE18      -0.1980
     38  CA        -0.5090   19.4820   -5.0640 C.3    18  ILE18       0.1595
     39  C         -1.9890   19.3520   -5.1830 C.2    18  ILE18       0.2287
     40  O         -2.5590   18.2890   -5.4100 O.2    18  ILE18      -0.2864
     41  CB         0.0790   18.5230   -6.0830 C.3    18  ILE18       0.0276
     42  CG1        1.5440   18.8610   -6.3560 C.3    18  ILE18       0.0022
     43  CG2       -0.7120   18.5390   -7.3710 C.3    18  ILE18       0.0022
     44  CD1        1.7580   19.7250   -7.5800 C.3    18  ILE18       0.0001
     45  N         -0.1750   23.9430   -2.2980 N.3    21  TYR21      -0.1227
     46  CA         1.0270   24.7670   -2.4410 C.3    21  TYR21       0.1736
     47  C          1.6910   24.8230   -3.8100 C.2    21  TYR21       0.2596
     48  O          2.8300   25.2770   -3.9280 O.2    21  TYR21      -0.2718
     49  CB         2.0670   24.3180   -1.4180 C.3    21  TYR21       0.0548
     50  CG         1.6020   24.4350    0.0110 C.ar   21  TYR21      -0.0200
     51  CD1        1.6620   25.6520    0.6840 C.ar   21  TYR21      -0.0009
     52  CD2        1.0940   23.3270    0.6940 C.ar   21  TYR21      -0.0009
     53  CE1        1.2360   25.7680    1.9970 C.ar   21  TYR21       0.0417
     54  CE2        0.6600   23.4350    2.0120 C.ar   21  TYR21       0.0417
     55  CZ         0.7390   24.6610    2.6570 C.ar   21  TYR21       0.1957
     56  OH         0.3350   24.7940    3.9640 O.3    21  TYR21      -0.2866
     57  N          0.9860   24.3890   -4.8440 N.am   22  SER22      -0.1952
     58  CA         1.5610   24.3880   -6.1780 C.3    22  SER22       0.1924
     59  C          1.1500   25.5740   -7.0500 C.2    22  SER22       0.2314
     60  O          1.7210   25.7850   -8.1160 O.2    22  SER22      -0.2863
     61  CB         1.2170   23.0710   -6.8740 C.3    22  SER22       0.2116
     62  OG        -0.1770   22.8290   -6.8340 O.3    22  SER22      -0.2180
     63  N          4.7430   27.2030   -6.1520 N.3    29  GLY29      -0.1210
     64  CA         4.5600   26.4930   -7.3960 C.3    29  GLY29       0.1956
     65  C          5.6590   27.0290   -8.2790 C.2    29  GLY29       0.2611
     66  O          6.8420   26.8800   -7.9670 O.2    29  GLY29      -0.2717
     67  N          5.2850   27.6470   -9.3880 N.am   30  TRP30      -0.1976
     68  CA         6.2790   28.2470  -10.2610 C.3    30  TRP30       0.1640
     69  C          6.1130   29.7360   -9.9940 C.2    30  TRP30       0.2290
     70  O          4.9900   30.2380   -9.8950 O.2    30  TRP30      -0.2864
     71  CB         5.9850   27.9320  -11.7290 C.3    30  TRP30       0.0576
     72  CG         7.0880   27.2000  -12.4860 C.ar   30  TRP30       0.0006
     73  CD1        6.9140   26.3920  -13.5750 C.ar   30  TRP30       0.0946
     74  CD2        8.5100   27.2270  -12.2350 C.ar   30  TRP30       0.0152
     75  NE1        8.1230   25.9110  -14.0120 N.ar   30  TRP30      -0.2442
     76  CE2        9.1210   26.4020  -13.2100 C.ar   30  TRP30       0.0810
     77  CE3        9.3250   27.8590  -11.2800 C.ar   30  TRP30       0.0012
     78  CZ2       10.5070   26.1990  -13.2690 C.ar   30  TRP30       0.0191
     79  CZ3       10.7120   27.6550  -11.3400 C.ar   30  TRP30       0.0001
     80  CH2       11.2820   26.8280  -12.3260 C.ar   30  TRP30       0.0015
     81  N          7.5210   30.0690    0.5380 N.3    44  CYS44      -0.1235
     82  CA         7.9080   29.5790   -0.7760 C.3    44  CYS44       0.1677
     83  C          9.0170   30.4260   -1.3650 C.2    44  CYS44       0.2270
     84  O          9.9070   29.9050   -2.0310 O.2    44  CYS44      -0.2867
     85  CB         6.7090   29.5470   -1.7310 C.3    44  CYS44       0.0956
     86  SG         5.4720   28.3180   -1.2160 S.3    44  CYS44      -0.0801
     87  N         12.1220   29.3970    0.1580 N.3    47  HIS47      -0.1226
     88  CA        12.4320   28.0610   -0.3370 C.3    47  HIS47       0.1752
     89  C         13.0720   28.1660   -1.7230 C.2    47  HIS47       0.2596
     90  O         14.0310   27.4520   -2.0270 O.2    47  HIS47      -0.2718
     91  CB        11.1530   27.2140   -0.3940 C.3    47  HIS47       0.0759
     92  CG        11.3920   25.7820   -0.7620 C.ar   47  HIS47       0.0818
     93  ND1       10.9810   25.2440   -1.9640 N.ar   47  HIS47      -0.2268
     94  CD2       12.0090   24.7810   -0.0920 C.ar   47  HIS47       0.1154
     95  CE1       11.3360   23.9720   -2.0150 C.ar   47  HIS47       0.1986
     96  NE2       11.9610   23.6660   -0.8930 N.ar   47  HIS47      -0.2212
     97  N         12.5460   29.0530   -2.5660 N.am   48  ASP48      -0.1974
     98  CA        13.1180   29.2300   -3.8980 C.3    48  ASP48       0.1709
     99  C         14.5460   29.7520   -3.7700 C.2    48  ASP48       0.2293
    100  O         15.4430   29.3190   -4.4930 O.2    48  ASP48      -0.2864
    101  CB        12.3010   30.2180   -4.7390 C.3    48  ASP48       0.1436
    102  CG        10.9230   29.6860   -5.1110 C.2    48  ASP48       0.3671
    103  OD1       10.7720   28.4570   -5.2490 O.co2  48  ASP48      -0.2456
    104  OD2        9.9910   30.5050   -5.2830 O.co2  48  ASP48      -0.2456
    105  N         17.0030   26.9980   -2.8110 N.3    51  TYR51      -0.1241
    106  CA        17.4180   26.1710   -3.9350 C.3    51  TYR51       0.1605
    107  C         18.3880   26.9690   -4.8020 C.2    51  TYR51       0.2264
    108  O         19.2900   26.4050   -5.4220 O.2    51  TYR51      -0.2867
    109  CB        16.2210   25.7660   -4.7890 C.3    51  TYR51       0.0534
    110  CG        15.3880   24.6150   -4.2680 C.ar   51  TYR51      -0.0201
    111  CD1       15.7380   23.9040   -3.1170 C.ar   51  TYR51      -0.0009
    112  CD2       14.2610   24.2120   -4.9680 C.ar   51  TYR51      -0.0009
    113  CE1       14.9660   22.8090   -2.6890 C.ar   51  TYR51       0.0417
    114  CE2       13.4930   23.1330   -4.5600 C.ar   51  TYR51       0.0417
    115  CZ        13.8440   22.4340   -3.4260 C.ar   51  TYR51       0.1957
    116  OH        13.0470   21.3700   -3.0570 O.3    51  TYR51      -0.2866
    117  N         17.2340   19.7150   -7.2220 N.3    59  PRO59      -0.2102
    118  CA        16.1670   19.4950   -6.2400 C.3    59  PRO59       0.1504
    119  C         14.9500   18.6790   -6.6540 C.2    59  PRO59       0.2575
    120  O         14.3930   17.9500   -5.8340 O.2    59  PRO59      -0.2718
    121  CB        15.7780   20.9080   -5.8360 C.3    59  PRO59       0.0282
    122  CG        17.0520   21.6370   -5.9280 C.3    59  PRO59       0.0208
    123  CD        17.6440   21.1300   -7.2260 C.3    59  PRO59       0.0893
    124  N         14.5230   18.8050   -7.9040 N.am   60  LYS60      -0.1980
    125  CA        13.3470   18.0680   -8.3670 C.3    60  LYS60       0.1596
    126  C         13.5070   16.5650   -8.3970 C.2    60  LYS60       0.2287
    127  O         12.6710   15.8250   -7.9010 O.2    60  LYS60      -0.2864
    128  CB        12.9700   18.4630   -9.7880 C.3    60  LYS60       0.0298
    129  CG        12.7500   19.9470   -9.9830 C.3    60  LYS60       0.0038
    130  CD        11.3490   20.2180  -10.5290 C.3    60  LYS60       0.0206
    131  CE        11.1060   19.4710  -11.8280 C.3    60  LYS60       0.1093
    132  NZ         9.7030   19.6380  -12.3020 N.3    60  LYS60      -0.1314
@<TRIPOS>BOND
     1    75    73   ar
     2    75    76   ar
     3    73    72   ar
     4    78    76   ar
     5    78    80   ar
     6    76    74   ar
     7    72    74   ar
     8    72    71    1
     9    80    79   ar
    10   132   131    1
    11    74    77   ar
    12   131   130    1
    13    71    68    1
    14    79    77   ar
    15   130   129    1
    16    68    69    1
    17    68    67    1
    18    69    70    2
    19   129   128    1
    20   128   125    1
    21    67    65   am
    22     8     6    1
    23   126   125    1
    24   126   127    2
    25   125   124    1
    26    65    66    2
    27    65    64    1
    28    60    59    2
    29   124   119   am
    30    44    42    1
    31    64    63    1
    32    43    41    1
    33   123   117    1
    34   123   122    1
    35   117   118    1
    36     6     7    1
    37     6     5    1
    38    59    58    1
    39    61    62    1
    40    61    58    1
    41     5     2    1
    42   119   118    1
    43   119   120    2
    44    42    41    1
    45   118   121    1
    46    58    57    1
    47    41    38    1
    48   122   121    1
    49     1     2    1
    50     2     3    1
    51   108   107    2
    52    40    39    2
    53   104   102   ar
    54   103   102   ar
    55    39    38    1
    56   102   101    1
    57    38    37    1
    58   112   114   ar
    59   112   110   ar
    60    57    47   am
    61   107   106    1
    62   109   110    1
    63   109   106    1
    64   101    98    1
    65     3     4    2
    66   114   115   ar
    67   100    99    2
    68   110   111   ar
    69   106   105    1
    70    48    47    2
    71    98    99    1
    72    98    97    1
    73    47    46    1
    74    37    34   am
    75   115   116    1
    76   115   113   ar
    77    35    34    2
    78   111   113   ar
    79    34    33    1
    80    97    89   am
    81    46    45    1
    82    46    49    1
    83    84    83    2
    84    90    89    2
    85    95    93   ar
    86    95    96   ar
    87    93    92   ar
    88    36    33    1
    89    16    18   ar
    90    16    14   ar
    91    85    86    1
    92    85    82    1
    93    89    88    1
    94    33    32    1
    95    49    50    1
    96    83    82    1
    97    13    14    1
    98    13    10    1
    99    18    19   ar
   100    20    21    1
   101    20    11   am
   102    21    22    1
   103     9    10    1
   104    96    94   ar
   105    14    15   ar
   106    82    81    1
   107    92    91    1
   108    92    94   ar
   109    91    88    1
   110    10    11    1
   111    88    87    1
   112    11    12    2
   113    50    51   ar
   114    50    52   ar
   115    22    23    2
   116    19    17   ar
   117    31    29    1
   118    15    17   ar
   119    51    53   ar
   120    52    54   ar
   121    29    28    1
   122    53    55   ar
   123    54    55   ar
   124    28    30    1
   125    28    25    1
   126    55    56    1
   127    24    25    1
   128    25    26    1
   129    26    27    2
