@<TRIPOS>MOLECULE
tmp/1q7cA00.pdb
 138 130 0 0 0
SMALL
GASTEIGER

@<TRIPOS>ATOM
      1  N        -16.0950   17.5690   56.3760 N.3    11  GLY11      -0.1225
      2  CA       -15.9190   18.9930   56.1300 C.3    11  GLY11       0.1811
      3  C        -17.0250   19.5930   55.2820 C.2    11  GLY11       0.2280
      4  O        -16.7670   20.3310   54.3280 O.2    11  GLY11      -0.2866
      5  N        -19.3190   21.9080   56.0980 N.3    13  SER13      -0.1202
      6  CA       -19.8760   23.1630   56.6300 C.3    13  SER13       0.2020
      7  C        -20.2860   24.1900   55.5720 C.2    13  SER13       0.2618
      8  O        -21.2930   24.8800   55.7350 O.2    13  SER13      -0.2717
      9  CB       -18.8860   23.8390   57.5880 C.3    13  SER13       0.2103
     10  OG       -18.7000   23.0740   58.7620 O.3    13  SER13      -0.2182
     11  N        -19.5080   24.2980   54.4980 N.am   14  ARG14      -0.1979
     12  CA       -19.7960   25.2720   53.4460 C.3    14  ARG14       0.1597
     13  C        -19.1930   24.9190   52.0840 C.2    14  ARG14       0.2287
     14  O        -18.6790   23.8180   51.8750 O.2    14  ARG14      -0.2864
     15  CB       -19.2920   26.6500   53.8870 C.3    14  ARG14       0.0334
     16  CG       -17.9040   26.5980   54.4930 C.3    14  ARG14       0.0492
     17  CD       -17.4470   27.9330   55.0350 C.3    14  ARG14       0.2205
     18  NE       -16.3680   27.7430   55.9990 N.pl3  14  ARG14      -0.0865
     19  CZ       -16.5360   27.2410   57.2210 C.cat  14  ARG14       0.5346
     20  NH1      -17.7440   26.8850   57.6380 N.pl3  14  ARG14       0.1354
     21  NH2      -15.4930   27.0720   58.0240 N.pl3  14  ARG14       0.1354
     22  N        -19.8470   16.5490   58.2170 N.3    34  THR34      -0.1203
     23  CA       -19.1020   16.7760   59.4430 C.3    34  THR34       0.1994
     24  C        -18.4550   18.1490   59.5720 C.2    34  THR34       0.2618
     25  O        -18.2070   18.8500   58.5850 O.2    34  THR34      -0.2717
     26  CB       -17.9940   15.7270   59.6340 C.3    34  THR34       0.1784
     27  OG1      -16.8830   16.0420   58.7870 O.3    34  THR34      -0.2211
     28  CG2      -18.5100   14.3430   59.2890 C.3    34  THR34       0.0376
     29  N        -18.1890   18.5170   60.8210 N.am   35  ALA35      -0.1965
     30  CA       -17.5470   19.7820   61.1440 C.3    35  ALA35       0.1728
     31  C        -16.6350   19.5210   62.3350 C.2    35  ALA35       0.2617
     32  O        -16.7040   18.4560   62.9540 O.2    35  ALA35      -0.2715
     33  CB       -18.5880   20.8290   61.4950 C.3    35  ALA35       0.0334
     34  N        -15.7820   20.4900   62.6490 N.am   36  THR36      -0.1937
     35  CA       -14.8600   20.3540   63.7670 C.3    36  THR36       0.2028
     36  C        -15.5140   20.8010   65.0780 C.2    36  THR36       0.2642
     37  O        -15.1230   20.3610   66.1630 O.2    36  THR36      -0.2714
     38  CB       -13.5760   21.1820   63.5270 C.3    36  THR36       0.1808
     39  OG1      -13.8910   22.5780   63.5270 O.3    36  THR36      -0.2208
     40  CG2      -12.9560   20.8210   62.1820 C.3    36  THR36       0.0379
     41  N        -16.5220   21.6630   64.9700 N.am   37  SER37      -0.1949
     42  CA       -17.2260   22.1750   66.1430 C.3    37  SER37       0.1924
     43  C        -18.6750   21.6890   66.2390 C.2    37  SER37       0.2314
     44  O        -19.2980   21.3730   65.2290 O.2    37  SER37      -0.2863
     45  CB       -17.1920   23.7080   66.1250 C.3    37  SER37       0.2116
     46  OG       -17.6120   24.2180   64.8690 O.3    37  SER37      -0.2180
     47  N        -21.0360   23.7390   63.9750 N.3    40  GLY40      -0.1225
     48  CA       -21.0840   23.2770   62.6030 C.3    40  GLY40       0.1811
     49  C        -21.9430   22.0520   62.4170 C.2    40  GLY40       0.2280
     50  O        -22.7910   22.0190   61.5280 O.2    40  GLY40      -0.2866
     51  N        -16.3530   15.9120   63.8770 N.3    57  LEU57      -0.1231
     52  CA       -15.2890   14.9840   63.5250 C.3    57  LEU57       0.1693
     53  C        -13.9590   15.7000   63.3180 C.2    57  LEU57       0.2592
     54  O        -13.9100   16.8300   62.8150 O.2    57  LEU57      -0.2718
     55  CB       -15.6480   14.2280   62.2390 C.3    57  LEU57       0.0284
     56  CG       -14.5060   13.4370   61.5950 C.3    57  LEU57       0.0019
     57  CD1      -14.1270   12.2670   62.4910 C.3    57  LEU57       0.0001
     58  CD2      -14.9330   12.9410   60.2240 C.3    57  LEU57       0.0001
     59  N        -12.8870   15.0330   63.7340 N.am   58  ASN58      -0.1960
     60  CA       -11.5370   15.5410   63.5510 C.3    58  ASN58       0.1819
     61  C        -10.8590   14.4110   62.7870 C.2    58  ASN58       0.2621
     62  O        -10.5800   13.3540   63.3490 O.2    58  ASN58      -0.2715
     63  CB       -10.8240   15.7580   64.8830 C.3    58  ASN58       0.1195
     64  CG        -9.4630   16.4090   64.7040 C.2    58  ASN58       0.2630
     65  OD1       -8.7140   16.0670   63.7850 O.2    58  ASN58      -0.2716
     66  ND2       -9.1310   17.3440   65.5840 N.am   58  ASN58      -0.0877
     67  N        -10.6090   14.6330   61.5030 N.am   59  VAL59      -0.1963
     68  CA        -9.9980   13.6090   60.6750 C.3    59  VAL59       0.1727
     69  C         -8.5740   13.2180   61.0650 C.2    59  VAL59       0.2616
     70  O         -8.0330   12.2620   60.5150 O.2    59  VAL59      -0.2715
     71  CB       -10.0480   14.0060   59.1860 C.3    59  VAL59       0.0290
     72  CG1      -11.5020   14.0900   58.7360 C.3    59  VAL59       0.0023
     73  CG2       -9.3490   15.3340   58.9620 C.3    59  VAL59       0.0023
     74  N         -7.9690   13.9280   62.0170 N.am   60  THR60      -0.1951
     75  CA        -6.6170   13.5740   62.4360 C.3    60  THR60       0.1897
     76  C         -6.6380   12.8310   63.7650 C.2    60  THR60       0.2313
     77  O         -5.6030   12.3510   64.2250 O.2    60  THR60      -0.2863
     78  CB        -5.7040   14.8020   62.6180 C.3    60  THR60       0.1794
     79  OG1       -6.0520   15.4750   63.8360 O.3    60  THR60      -0.2208
     80  CG2       -5.8210   15.7540   61.4250 C.3    60  THR60       0.0378
     81  N        -13.5090   15.5590   51.9250 N.3    85  ASN85      -0.1225
     82  CA       -13.4070   16.9430   51.5000 C.3    85  ASN85       0.1785
     83  C        -12.7910   17.7920   52.5980 C.2    85  ASN85       0.2597
     84  O        -12.5480   18.9680   52.4060 O.2    85  ASN85      -0.2718
     85  CB       -14.7860   17.4810   51.1170 C.3    85  ASN85       0.1169
     86  CG       -14.7990   18.9930   50.9480 C.2    85  ASN85       0.2627
     87  OD1      -15.1350   19.7260   51.8820 O.2    85  ASN85      -0.2716
     88  ND2      -14.4210   19.4690   49.7670 N.am   85  ASN85      -0.0877
     89  N        -12.5390   17.1980   53.7580 N.am   86  ALA86      -0.1966
     90  CA       -11.9410   17.9510   54.8590 C.3    86  ALA86       0.1728
     91  C        -10.5110   18.2500   54.4590 C.2    86  ALA86       0.2617
     92  O         -9.8210   17.3830   53.9310 O.2    86  ALA86      -0.2715
     93  CB       -11.9630   17.1290   56.1540 C.3    86  ALA86       0.0334
     94  N        -10.0650   19.4750   54.6960 N.am   87  GLY87      -0.1940
     95  CA        -8.7030   19.8280   54.3470 C.3    87  GLY87       0.2014
     96  C         -8.4290   21.2650   54.7210 C.2    87  GLY87       0.2639
     97  O         -9.3640   22.0270   54.9310 O.2    87  GLY87      -0.2714
     98  N         -7.1580   21.6440   54.8120 N.am   88  ILE88      -0.1963
     99  CA        -6.8070   23.0130   55.1620 C.3    88  ILE88       0.1727
    100  C         -5.6190   23.4840   54.3400 C.2    88  ILE88       0.2617
    101  O         -5.0930   22.7520   53.5060 O.2    88  ILE88      -0.2715
    102  CB        -6.4320   23.1270   56.6430 C.3    88  ILE88       0.0290
    103  CG1       -5.2740   22.1690   56.9560 C.3    88  ILE88       0.0022
    104  CG2       -7.6460   22.8640   57.4930 C.3    88  ILE88       0.0023
    105  CD1       -4.8170   22.1800   58.3990 C.3    88  ILE88       0.0001
    106  N         -5.2000   24.7160   54.5800 N.am   89  THR89      -0.1937
    107  CA        -4.0570   25.2650   53.8830 C.3    89  THR89       0.2028
    108  C         -3.1780   26.0400   54.8550 C.2    89  THR89       0.2642
    109  O         -3.6740   26.7420   55.7360 O.2    89  THR89      -0.2714
    110  CB        -4.4870   26.2000   52.7500 C.3    89  THR89       0.1808
    111  OG1       -5.2560   27.2800   53.2910 O.3    89  THR89      -0.2208
    112  CG2       -5.3190   25.4470   51.7340 C.3    89  THR89       0.0379
    113  N         -1.8680   25.8850   54.6960 N.am   90  ARG90      -0.1977
    114  CA        -0.8830   26.5660   55.5190 C.3    90  ARG90       0.1597
    115  C          0.1880   27.0490   54.5500 C.2    90  ARG90       0.2287
    116  O          1.3430   26.6150   54.5960 O.2    90  ARG90      -0.2864
    117  CB        -0.2930   25.6010   56.5470 C.3    90  ARG90       0.0334
    118  CG        -1.2950   25.1550   57.6030 C.3    90  ARG90       0.0492
    119  CD        -1.6900   26.3110   58.5110 C.3    90  ARG90       0.2205
    120  NE        -2.5660   25.9000   59.6090 N.pl3  90  ARG90      -0.0865
    121  CZ        -3.8930   25.7940   59.5260 C.cat  90  ARG90       0.5346
    122  NH1       -4.5200   26.0700   58.3880 N.pl3  90  ARG90       0.1354
    123  NH2       -4.5970   25.4080   60.5850 N.pl3  90  ARG90       0.1354
    124  N         -3.7950   16.3730   58.1110 N.3   108  THR108     -0.1218
    125  CA        -5.1700   16.7170   57.7810 C.3   108  THR108      0.1862
    126  C         -5.6100   16.4890   56.3300 C.2   108  THR108      0.2287
    127  O         -6.7470   16.0780   56.0790 O.2   108  THR108     -0.2866
    128  CB        -5.4370   18.1850   58.1520 C.3   108  THR108      0.1770
    129  OG1       -5.1410   18.3750   59.5410 O.3   108  THR108     -0.2211
    130  CG2       -6.8980   18.5530   57.9000 C.3   108  THR108      0.0375
    131  N        -13.0360   33.0200   50.6200 N.3   187  MET187     -0.1245
    132  CA       -11.7080   33.6040   50.5240 C.3   187  MET187      0.1570
    133  C        -11.6100   34.4700   49.2680 C.2   187  MET187      0.2261
    134  O        -11.1560   35.6140   49.3380 O.2   187  MET187     -0.2867
    135  CB       -10.6280   32.5140   50.5040 C.3   187  MET187      0.0387
    136  CG       -10.5170   31.7370   51.8120 C.3   187  MET187      0.0595
    137  SD       -10.1560   32.7980   53.2430 S.3   187  MET187     -0.1393
    138  CE        -8.5320   32.1710   53.7460 C.3   187  MET187      0.0692
@<TRIPOS>BOND
     1   133   134    2
     2   133   132    1
     3    88    86   am
     4   135   132    1
     5   135   136    1
     6   132   131    1
     7    86    85    1
     8    86    87    2
     9    85    82    1
    10    82    81    1
    11    82    83    1
    12   112   110    1
    13   136   137    1
    14    14    13    2
    15    13    12    1
    16    84    83    2
    17    83    89   am
    18   110   111    1
    19   110   107    1
    20   137   138    1
    21    12    15    1
    22    12    11    1
    23   101   100    2
    24    89    90    1
    25   107   106    1
    26   107   108    1
    27    15    16    1
    28    92    91    2
    29     4     3    2
    30   100   106   am
    31   100    99    1
    32    95    94    1
    33    95    96    1
    34    91    94   am
    35    91    90    1
    36    16    17    1
    37    11     7   am
    38   115   116    2
    39   115   114    1
    40   113   108   am
    41   113   114    1
    42    96    98   am
    43    96    97    2
    44    98    99    1
    45   108   109    2
    46    90    93    1
    47    17    18    1
    48    99   102    1
    49     3     2    1
    50   114   117    1
    51     7     8    2
    52     7     6    1
    53    18    19    2
    54   127   126    2
    55     5     6    1
    56     2     1    1
    57   126   125    1
    58   117   118    1
    59     6     9    1
    60   102   103    1
    61   102   104    1
    62   103   105    1
    63    19    20    1
    64    19    21    1
    65     9    10    1
    66   118   119    1
    67   125   124    1
    68   125   128    1
    69   130   128    1
    70   128   129    1
    71    22    23    1
    72   122   121    1
    73   119   120    1
    74    25    24    2
    75    72    71    1
    76    27    26    1
    77    73    71    1
    78    71    68    1
    79    28    26    1
    80    23    24    1
    81    23    26    1
    82   121   120    2
    83   121   123    1
    84    24    29   am
    85    58    56    1
    86    70    69    2
    87    68    69    1
    88    68    67    1
    89    29    30    1
    90    69    74   am
    91    30    33    1
    92    30    31    1
    93    80    78    1
    94    67    61   am
    95    50    49    2
    96    56    55    1
    97    56    57    1
    98    74    75    1
    99    40    38    1
   100    55    52    1
   101    31    34   am
   102    31    32    2
   103    49    48    1
   104    75    78    1
   105    75    76    1
   106    48    47    1
   107    78    79    1
   108    34    35    1
   109    61    62    2
   110    61    60    1
   111    54    53    2
   112    53    52    1
   113    53    59   am
   114    52    51    1
   115    39    38    1
   116    38    35    1
   117    60    59    1
   118    60    63    1
   119    76    77    2
   120    35    36    1
   121    65    64    2
   122    64    63    1
   123    64    66   am
   124    46    45    1
   125    41    36   am
   126    41    42    1
   127    36    37    2
   128    44    43    2
   129    45    42    1
   130    42    43    1
