@<TRIPOS>MOLECULE
tmp/1q7eA00.pdb
 100 102 0 0 0
SMALL
GASTEIGER

@<TRIPOS>ATOM
      1  N         42.7150  -25.8130   -2.8170 N.3   145  PHE145     -0.1227
      2  CA        42.4030  -26.8090   -3.8470 C.3   145  PHE145      0.1736
      3  C         40.9510  -27.2160   -3.7870 C.2   145  PHE145      0.2595
      4  O         40.2980  -27.1680   -2.7230 O.2   145  PHE145     -0.2718
      5  CB        43.3210  -28.0360   -3.7290 C.3   145  PHE145      0.0547
      6  CG        44.6610  -27.8380   -4.3630 C.ar  145  PHE145     -0.0202
      7  CD1       45.7480  -27.4140   -3.6010 C.ar  145  PHE145     -0.0042
      8  CD2       44.8450  -28.1020   -5.7080 C.ar  145  PHE145     -0.0042
      9  CE1       47.0010  -27.2070   -4.2090 C.ar  145  PHE145     -0.0003
     10  CE2       46.0880  -27.9120   -6.3140 C.ar  145  PHE145     -0.0003
     11  CZ        47.1610  -27.4610   -5.5580 C.ar  145  PHE145     -0.0000
     12  N         40.4560  -27.6640   -4.9340 N.am  146  TRP146     -0.1976
     13  CA        39.0660  -28.0730   -5.0870 C.3   146  TRP146      0.1640
     14  C         38.6810  -29.2590   -4.2020 C.2   146  TRP146      0.2290
     15  O         37.5020  -29.4090   -3.8510 O.2   146  TRP146     -0.2864
     16  CB        38.8070  -28.4120   -6.5640 C.3   146  TRP146      0.0576
     17  CG        39.8560  -29.3070   -7.1280 C.ar  146  TRP146      0.0006
     18  CD1       39.8930  -30.6760   -7.0600 C.ar  146  TRP146      0.0946
     19  CD2       41.0550  -28.9110   -7.8060 C.ar  146  TRP146      0.0152
     20  NE1       41.0290  -31.1590   -7.6730 N.ar  146  TRP146     -0.2442
     21  CE2       41.7580  -30.0910   -8.1420 C.ar  146  TRP146      0.0810
     22  CE3       41.6000  -27.6610   -8.1910 C.ar  146  TRP146      0.0012
     23  CZ2       42.9580  -30.0760   -8.8300 C.ar  146  TRP146      0.0191
     24  CZ3       42.7970  -27.6450   -8.8820 C.ar  146  TRP146      0.0001
     25  CH2       43.4840  -28.8550   -9.1740 C.ar  146  TRP146      0.0015
     26  N         50.8080  -22.0500  -13.3410 N.3   240  TRP240     -0.1227
     27  CA        50.7990  -23.0950  -12.3110 C.3   240  TRP240      0.1737
     28  C         52.1020  -23.0230  -11.5280 C.2   240  TRP240      0.2595
     29  O         53.0840  -22.4070  -11.9940 O.2   240  TRP240     -0.2718
     30  CB        50.6410  -24.4980  -12.9440 C.3   240  TRP240      0.0564
     31  CG        50.0490  -25.5620  -12.0190 C.ar  240  TRP240      0.0003
     32  CD1       50.7100  -26.6510  -11.4870 C.ar  240  TRP240      0.0946
     33  CD2       48.7050  -25.6250  -11.5130 C.ar  240  TRP240      0.0152
     34  NE1       49.8540  -27.3940  -10.7120 N.ar  240  TRP240     -0.2442
     35  CE2       48.6160  -26.7930  -10.7030 C.ar  240  TRP240      0.0810
     36  CE3       47.5560  -24.8560  -11.7210 C.ar  240  TRP240      0.0012
     37  CZ2       47.4280  -27.1720  -10.0580 C.ar  240  TRP240      0.0191
     38  CZ3       46.3670  -25.2380  -11.0900 C.ar  240  TRP240      0.0001
     39  CH2       46.3260  -26.3890  -10.2750 C.ar  240  TRP240      0.0015
     40  N         52.0920  -23.5900  -10.3250 N.am  241  ILE241     -0.1966
     41  CA        53.3120  -23.7500   -9.5300 C.3   241  ILE241      0.1727
     42  C         53.9780  -25.0810   -9.9290 C.2   241  ILE241      0.2616
     43  O         53.3460  -26.1410   -9.8120 O.2   241  ILE241     -0.2715
     44  CB        52.9480  -23.7810   -8.0300 C.3   241  ILE241      0.0290
     45  CG1       52.6160  -22.3770   -7.5190 C.3   241  ILE241      0.0022
     46  CG2       54.0910  -24.3610   -7.1750 C.3   241  ILE241      0.0023
     47  CD1       53.8390  -21.4300   -7.3450 C.3   241  ILE241      0.0001
     48  N         55.2230  -25.0190  -10.4250 N.am  242  LEU242     -0.1963
     49  CA        55.9310  -26.2020  -10.9440 C.3   242  LEU242      0.1728
     50  C         57.1010  -26.5350  -10.0350 C.2   242  LEU242      0.2616
     51  O         57.8600  -25.6570   -9.6020 O.2   242  LEU242     -0.2715
     52  CB        56.4910  -25.9050  -12.3550 C.3   242  LEU242      0.0311
     53  CG        55.4560  -25.4580  -13.3940 C.3   242  LEU242      0.0022
     54  CD1       56.1490  -25.2780  -14.7630 C.3   242  LEU242      0.0001
     55  CD2       54.2560  -26.4380  -13.4850 C.3   242  LEU242      0.0001
     56  N         57.2830  -27.8310   -9.8240 N.am  243  LYS243     -0.1977
     57  CA        58.4000  -28.3570   -9.0250 C.3   243  LYS243      0.1596
     58  C         59.7290  -28.1090   -9.7060 C.2   243  LYS243      0.2287
     59  O         59.8240  -28.2840  -10.9230 O.2   243  LYS243     -0.2864
     60  CB        58.2620  -29.8760   -8.8930 C.3   243  LYS243      0.0298
     61  CG        57.1200  -30.3520   -8.0170 C.3   243  LYS243      0.0038
     62  CD        56.8550  -31.8380   -8.2620 C.3   243  LYS243      0.0206
     63  CE        55.8380  -32.3420   -7.2480 C.3   243  LYS243      0.1093
     64  NZ        55.1570  -33.5470   -7.7540 N.3   243  LYS243     -0.1314
     65  N         46.8990  -29.2800  -18.2800 N.3   293  PHE293     -0.1241
     66  CA        47.7640  -29.9180  -17.2720 C.3   293  PHE293      0.1605
     67  C         48.7890  -30.8760  -17.8610 C.2   293  PHE293      0.2264
     68  O         49.8480  -31.0660  -17.2780 O.2   293  PHE293     -0.2867
     69  CB        46.9570  -30.5550  -16.1460 C.3   293  PHE293      0.0534
     70  CG        46.2730  -29.5370  -15.2930 C.ar  293  PHE293     -0.0203
     71  CD1       44.9440  -29.2090  -15.5140 C.ar  293  PHE293     -0.0042
     72  CD2       46.9810  -28.8850  -14.2860 C.ar  293  PHE293     -0.0042
     73  CE1       44.3190  -28.2160  -14.7240 C.ar  293  PHE293     -0.0003
     74  CE2       46.3800  -27.9120  -13.5140 C.ar  293  PHE293     -0.0003
     75  CZ        45.0450  -27.5900  -13.7180 C.ar  293  PHE293     -0.0000
     76  N         51.5550  -28.3530  -18.6050 N.3   296  PHE296     -0.1227
     77  CA        52.3080  -28.0640  -17.3940 C.3   296  PHE296      0.1736
     78  C         53.1910  -29.2700  -16.9990 C.2   296  PHE296      0.2595
     79  O         54.3260  -29.0940  -16.5640 O.2   296  PHE296     -0.2718
     80  CB        51.3380  -27.6930  -16.2510 C.3   296  PHE296      0.0547
     81  CG        50.7220  -26.3250  -16.3810 C.ar  296  PHE296     -0.0202
     82  CD1       49.3670  -26.1650  -16.1540 C.ar  296  PHE296     -0.0042
     83  CD2       51.4940  -25.2110  -16.7130 C.ar  296  PHE296     -0.0042
     84  CE1       48.7760  -24.9190  -16.2660 C.ar  296  PHE296     -0.0003
     85  CE2       50.9130  -23.9420  -16.8220 C.ar  296  PHE296     -0.0003
     86  CZ        49.5460  -23.8060  -16.6120 C.ar  296  PHE296     -0.0000
     87  N         52.6780  -30.4850  -17.1790 N.am  297  ALA297     -0.1980
     88  CA        53.4680  -31.6860  -16.8940 C.3   297  ALA297      0.1597
     89  C         54.7200  -31.7450  -17.7830 C.2   297  ALA297      0.2287
     90  O         55.7990  -32.1140  -17.3050 O.2   297  ALA297     -0.2864
     91  CB        52.6230  -32.9620  -17.0310 C.3   297  ALA297      0.0319
     92  N         57.1650  -29.2290  -16.5120 N.3   300  GLU300     -0.1245
     93  CA        57.7400  -29.7220  -15.2560 C.3   300  GLU300      0.1567
     94  C         58.7910  -30.8170  -15.4390 C.2   300  GLU300      0.2260
     95  O         59.6870  -30.9690  -14.6130 O.2   300  GLU300     -0.2867
     96  CB        56.6300  -30.1770  -14.2970 C.3   300  GLU300      0.0388
     97  CG        57.0720  -30.2440  -12.8470 C.3   300  GLU300      0.1160
     98  CD        55.8810  -30.5330  -11.9520 C.2   300  GLU300      0.3649
     99  OE1       55.2350  -31.5870  -12.1330 O.co2 300  GLU300     -0.2457
    100  OE2       55.5560  -29.6920  -11.1060 O.co2 300  GLU300     -0.2457
@<TRIPOS>BOND
     1    76    77    1
     2    65    66    1
     3    67    68    2
     4    67    66    1
     5    89    90    2
     6    89    88    1
     7    77    78    1
     8    77    80    1
     9    66    69    1
    10    87    78   am
    11    87    88    1
    12    91    88    1
    13    78    79    2
    14    85    83   ar
    15    85    86   ar
    16    83    81   ar
    17    86    84   ar
    18    92    93    1
    19    81    80    1
    20    81    82   ar
    21    84    82   ar
    22    69    70    1
    23    71    70   ar
    24    71    73   ar
    25    94    93    1
    26    94    95    2
    27    70    72   ar
    28    93    96    1
    29    54    53    1
    30    73    75   ar
    31    96    97    1
    32    72    74   ar
    33    75    74   ar
    34    55    53    1
    35    53    52    1
    36    26    27    1
    37    30    27    1
    38    30    31    1
    39    97    98    1
    40    52    49    1
    41    27    28    1
    42    99    98   ar
    43    31    33   ar
    44    31    32   ar
    45    29    28    2
    46    98   100   ar
    47    36    33   ar
    48    36    38   ar
    49    28    40   am
    50    33    35   ar
    51    32    34   ar
    52    38    39   ar
    53    49    48    1
    54    49    50    1
    55    59    58    2
    56    34    35   ar
    57    35    37   ar
    58    48    42   am
    59    40    41    1
    60    39    37   ar
    61    50    56   am
    62    50    51    2
    63    42    43    2
    64    42    41    1
    65    56    57    1
    66    58    57    1
    67    41    44    1
    68    25    24   ar
    69    25    23   ar
    70    57    60    1
    71    60    61    1
    72    24    22   ar
    73    23    21   ar
    74    62    61    1
    75    62    63    1
    76    22    19   ar
    77    21    19   ar
    78    21    20   ar
    79    44    45    1
    80    44    46    1
    81    19    17   ar
    82    64    63    1
    83    20    18   ar
    84    45    47    1
    85    17    18   ar
    86    17    16    1
    87    16    13    1
    88    10     8   ar
    89    10    11   ar
    90     8     6   ar
    91    11     9   ar
    92    13    12    1
    93    13    14    1
    94    12     3   am
    95     6     5    1
    96     6     7   ar
    97     9     7   ar
    98    14    15    2
    99     2     3    1
   100     2     5    1
   101     2     1    1
   102     3     4    2
