@<TRIPOS>MOLECULE
tmp/1q7eA05.pdb
 86 79 0 0 0
SMALL
GASTEIGER

@<TRIPOS>ATOM
      1  N         49.4250   16.0550   12.8230 N.3     9  LYS9       -0.1231
      2  CA        49.4510   15.4850   14.1570 C.3     9  LYS9        0.1693
      3  C         48.3910   14.3820   14.2760 C.2     9  LYS9        0.2592
      4  O         47.1850   14.6280   14.0720 O.2     9  LYS9       -0.2718
      5  CB        49.2020   16.5920   15.1970 C.3     9  LYS9        0.0285
      6  CG        50.2780   17.6860   15.0550 C.3     9  LYS9        0.0035
      7  CD        49.9430   18.8490   15.9750 C.3     9  LYS9        0.0206
      8  CE        50.5450   20.1670   15.4680 C.3     9  LYS9        0.1093
      9  NZ        50.1210   20.4800   14.0340 N.3     9  LYS9       -0.1314
     10  N         48.8480   13.1820   14.6330 N.am   10  VAL10      -0.1966
     11  CA        47.9780   12.0130   14.7350 C.3    10  VAL10       0.1727
     12  C         47.8960   11.4790   16.1480 C.2    10  VAL10       0.2616
     13  O         48.9370   11.2900   16.8040 O.2    10  VAL10      -0.2715
     14  CB        48.5240   10.8710   13.8310 C.3    10  VAL10       0.0290
     15  CG1       47.6140    9.6450   13.8580 C.3    10  VAL10       0.0023
     16  CG2       48.7820   11.4150   12.3920 C.3    10  VAL10       0.0023
     17  N         46.6810   11.2360   16.6130 N.am   11  LEU11      -0.1977
     18  CA        46.4390   10.5780   17.8980 C.3    11  LEU11       0.1596
     19  C         46.0820    9.1530   17.5830 C.2    11  LEU11       0.2287
     20  O         45.0850    8.8940   16.9060 O.2    11  LEU11      -0.2864
     21  CB        45.3010   11.2600   18.6710 C.3    11  LEU11       0.0297
     22  CG        45.5100   12.7370   18.9730 C.3    11  LEU11       0.0022
     23  CD1       44.2740   13.2930   19.7040 C.3    11  LEU11       0.0001
     24  CD2       46.8050   13.0450   19.7470 C.3    11  LEU11       0.0001
     25  N         53.5480   13.4230   12.8210 N.3    31  ASP31      -0.1239
     26  CA        53.8730   13.1140   14.2110 C.3    31  ASP31       0.1674
     27  C         52.7890   12.1850   14.7420 C.2    31  ASP31       0.2266
     28  O         51.6410   12.5970   14.9330 O.2    31  ASP31      -0.2867
     29  CB        53.9100   14.3910   15.0680 C.3    31  ASP31       0.1410
     30  CG        54.1100   14.0940   16.5630 C.2    31  ASP31       0.3668
     31  OD1       54.8910   13.1720   16.9250 O.co2  31  ASP31      -0.2456
     32  OD2       53.5050   14.7300   17.4510 O.co2  31  ASP31      -0.2456
     33  N         51.4120    9.9910   17.6960 N.3    33  ILE33      -0.1245
     34  CA        51.4760    9.7150   19.1240 C.3    33  ILE33       0.1561
     35  C         50.6000    8.5230   19.4600 C.2    33  ILE33       0.2260
     36  O         49.3770    8.6030   19.3560 O.2    33  ILE33      -0.2867
     37  CB        51.0090   10.9230   19.9430 C.3    33  ILE33       0.0252
     38  CG1       51.9060   12.1290   19.6700 C.3    33  ILE33       0.0019
     39  CG2       51.0340   10.5910   21.4250 C.3    33  ILE33       0.0019
     40  CD1       51.3690   13.4000   20.3360 C.3    33  ILE33       0.0001
     41  N         44.7530   17.2120   23.7120 N.3    83  LEU83      -0.1245
     42  CA        45.3170   16.4990   22.5490 C.3    83  LEU83       0.1561
     43  C         44.3720   16.5840   21.3410 C.2    83  LEU83       0.2260
     44  O         44.8210   16.8380   20.2150 O.2    83  LEU83      -0.2867
     45  CB        45.6120   15.0310   22.8680 C.3    83  LEU83       0.0270
     46  CG        46.8730   14.7920   23.7180 C.3    83  LEU83       0.0019
     47  CD1       46.8700   13.3780   24.2880 C.3    83  LEU83       0.0001
     48  CD2       48.1300   15.0850   22.9350 C.3    83  LEU83       0.0001
     49  N         44.3380   19.8240   19.3490 N.3    86  GLU86      -0.1231
     50  CA        45.5400   20.0870   18.5580 C.3    86  GLU86       0.1699
     51  C         45.7090   19.1450   17.3760 C.2    86  GLU86       0.2592
     52  O         46.5210   19.4070   16.5000 O.2    86  GLU86      -0.2718
     53  CB        46.8040   19.9380   19.4130 C.3    86  GLU86       0.0402
     54  CG        46.8890   20.8590   20.6210 C.3    86  GLU86       0.1161
     55  CD        46.7440   22.3230   20.2550 C.2    86  GLU86       0.3649
     56  OE1       47.4560   22.7900   19.3420 O.co2  86  GLU86      -0.2457
     57  OE2       45.9100   23.0020   20.8860 O.co2  86  GLU86      -0.2457
     58  N         44.9810   18.0410   17.3790 N.am   87  ALA87      -0.1980
     59  CA        45.2570   16.9670   16.4330 C.3    87  ALA87       0.1597
     60  C         44.5900   17.1440   15.0720 C.2    87  ALA87       0.2287
     61  O         43.5590   17.7970   14.9500 O.2    87  ALA87      -0.2864
     62  CB        44.8470   15.6500   17.0370 C.3    87  ALA87       0.0319
     63  N         55.4280   14.9910   25.5270 N.3   381  VAL381     -0.1245
     64  CA        54.1160   15.3760   25.0160 C.3   381  VAL381      0.1561
     65  C         53.3720   16.3050   26.0040 C.2   381  VAL381      0.2260
     66  O         52.7730   17.2790   25.5990 O.2   381  VAL381     -0.2867
     67  CB        53.2810   14.1170   24.6450 C.3   381  VAL381      0.0252
     68  CG1       51.7880   14.4670   24.4410 C.3   381  VAL381      0.0019
     69  CG2       53.8760   13.4670   23.3720 C.3   381  VAL381      0.0019
     70  N         54.8180   19.7440   25.6660 N.3   384  GLU384     -0.1231
     71  CA        54.3500   20.4040   24.4480 C.3   384  GLU384      0.1699
     72  C         52.9310   20.9370   24.5960 C.2   384  GLU384      0.2592
     73  O         52.5600   21.9150   23.9360 O.2   384  GLU384     -0.2718
     74  CB        54.4520   19.4520   23.2410 C.3   384  GLU384      0.0402
     75  CG        55.8820   19.0550   22.8930 C.3   384  GLU384      0.1161
     76  CD        55.9630   17.7660   22.0940 C.2   384  GLU384      0.3649
     77  OE1       54.9730   17.4020   21.4090 O.co2 384  GLU384     -0.2457
     78  OE2       57.0250   17.1240   22.1630 O.co2 384  GLU384     -0.2457
     79  N         52.1400   20.2950   25.4510 N.am  385  LEU385     -0.1980
     80  CA        50.7620   20.6900   25.7090 C.3   385  LEU385      0.1596
     81  C         50.6790   21.8570   26.7050 C.2   385  LEU385      0.2287
     82  O         49.5990   22.3740   26.9610 O.2   385  LEU385     -0.2864
     83  CB        49.9490   19.5110   26.2490 C.3   385  LEU385      0.0297
     84  CG        49.6050   18.3510   25.2970 C.3   385  LEU385      0.0022
     85  CD1       48.9410   17.2040   26.0710 C.3   385  LEU385      0.0001
     86  CD2       48.6840   18.8080   24.1590 C.3   385  LEU385      0.0001
@<TRIPOS>BOND
     1    16    14    1
     2    25    26    1
     3     1     2    1
     4    14    15    1
     5    14    11    1
     6     9     8    1
     7     4     3    2
     8     2     3    1
     9     2     5    1
    10    26    27    1
    11    26    29    1
    12     3    10   am
    13    10    11    1
    14    11    12    1
    15    27    28    2
    16    61    60    2
    17     6     5    1
    18     6     7    1
    19    29    30    1
    20    60    59    1
    21     8     7    1
    22    12    17   am
    23    12    13    2
    24    59    62    1
    25    59    58    1
    26    52    51    2
    27    30    31   ar
    28    30    32   ar
    29    17    18    1
    30    20    19    2
    31    51    58   am
    32    51    50    1
    33    19    18    1
    34    33    34    1
    35    18    21    1
    36    50    49    1
    37    50    53    1
    38    21    22    1
    39    22    23    1
    40    22    24    1
    41    34    35    1
    42    34    37    1
    43    56    55   ar
    44    36    35    2
    45    53    54    1
    46    38    37    1
    47    38    40    1
    48    37    39    1
    49    44    43    2
    50    55    54    1
    51    55    57   ar
    52    43    42    1
    53    77    76   ar
    54    76    78   ar
    55    76    75    1
    56    42    45    1
    57    42    41    1
    58    45    46    1
    59    75    74    1
    60    48    46    1
    61    74    71    1
    62    69    67    1
    63    46    47    1
    64    73    72    2
    65    86    84    1
    66    68    67    1
    67    71    72    1
    68    71    70    1
    69    72    79   am
    70    67    64    1
    71    64    63    1
    72    64    65    1
    73    84    85    1
    74    84    83    1
    75    79    80    1
    76    66    65    2
    77    80    83    1
    78    80    81    1
    79    81    82    2
