@<TRIPOS>MOLECULE
tmp/1q7tA01.pdb
 127 121 0 0 0
SMALL
GASTEIGER

@<TRIPOS>ATOM
      1  N         11.1620   54.7970   37.9800 N.3    26  HIS26      -0.1227
      2  CA        10.5850   54.7060   36.6390 C.3    26  HIS26       0.1737
      3  C         10.4670   53.2620   36.1640 C.2    26  HIS26       0.2438
      4  O         11.0360   52.3570   36.7630 O.2    26  HIS26      -0.2733
      5  CB        11.4780   55.4300   35.6210 C.3    26  HIS26       0.0758
      6  CG        12.0370   56.7300   36.1010 C.ar   26  HIS26       0.0818
      7  ND1       11.2430   57.7960   36.4620 N.ar   26  HIS26      -0.2268
      8  CD2       13.3170   57.1510   36.2400 C.ar   26  HIS26       0.1154
      9  CE1       12.0080   58.8180   36.8000 C.ar   26  HIS26       0.1986
     10  NE2       13.2710   58.4530   36.6740 N.ar   26  HIS26      -0.2212
     11  N          9.7350   53.0360   35.0570 N.am   27  PRO27      -0.2718
     12  CA         9.5720   51.6860   34.5070 C.3    27  PRO27       0.1535
     13  C         10.9140   51.2110   33.9360 C.2    27  PRO27       0.2599
     14  O         11.5410   51.9230   33.1560 O.2    27  PRO27      -0.2715
     15  CB         8.5380   51.8800   33.3990 C.3    27  PRO27       0.0310
     16  CG         7.7510   53.0730   33.8600 C.3    27  PRO27       0.0237
     17  CD         8.8270   53.9850   34.3900 C.3    27  PRO27       0.0939
     18  N         11.3270   50.0130   34.3380 N.am   28  ASP28      -0.1958
     19  CA        12.5700   49.3470   33.9220 C.3    28  ASP28       0.1840
     20  C         13.6610   49.4090   34.9820 C.2    28  ASP28       0.2622
     21  O         14.6390   48.6700   34.9080 O.2    28  ASP28      -0.2715
     22  CB        13.0920   49.8610   32.5590 C.3    28  ASP28       0.1450
     23  CG        13.9530   51.1170   32.6620 C.2    28  ASP28       0.3671
     24  OD1       14.2910   51.6720   31.5950 O.co2  28  ASP28      -0.2456
     25  OD2       14.2960   51.5550   33.7760 O.co2  28  ASP28      -0.2456
     26  N         13.4920   50.2840   35.9720 N.am   29  ASP29      -0.1971
     27  CA        14.4620   50.3750   37.0620 C.3    29  ASP29       0.1709
     28  C         14.4450   49.0540   37.8300 C.2    29  ASP29       0.2293
     29  O         15.4840   48.5740   38.2840 O.2    29  ASP29      -0.2864
     30  CB        14.1060   51.5050   38.0320 C.3    29  ASP29       0.1436
     31  CG        14.5520   52.8670   37.5380 C.2    29  ASP29       0.3671
     32  OD1       15.6730   52.9550   36.9950 O.co2  29  ASP29      -0.2456
     33  OD2       13.7920   53.8490   37.7110 O.co2  29  ASP29      -0.2456
     34  N          7.2970   57.5320   33.8270 N.3    56  GLY56      -0.1225
     35  CA         8.5010   57.7090   33.0300 C.3    56  GLY56       0.1811
     36  C          8.1790   58.4810   31.7610 C.2    56  GLY56       0.2280
     37  O          8.6950   58.1780   30.6840 O.2    56  GLY56      -0.2866
     38  N          9.0790   61.3860   30.7490 N.3    58  GLU58      -0.1231
     39  CA        10.1680   62.1640   30.1650 C.3    58  GLU58       0.1699
     40  C         11.2850   61.3510   29.5190 C.2    58  GLU58       0.2593
     41  O         12.3010   61.9060   29.1080 O.2    58  GLU58      -0.2718
     42  CB        10.7730   63.0890   31.2310 C.3    58  GLU58       0.0402
     43  CG         9.8560   64.2040   31.7170 C.3    58  GLU58       0.1161
     44  CD         9.5290   65.2270   30.6350 C.2    58  GLU58       0.3649
     45  OE1       10.4350   65.5930   29.8570 O.co2  58  GLU58      -0.2457
     46  OE2        8.3660   65.6800   30.5730 O.co2  58  GLU58      -0.2457
     47  N         11.1010   60.0430   29.4140 N.am   59  GLY59      -0.1942
     48  CA        12.1350   59.2150   28.8240 C.3    59  GLY59       0.2014
     49  C         12.3860   59.4370   27.3420 C.2    59  GLY59       0.2638
     50  O         11.6100   60.0910   26.6400 O.2    59  GLY59      -0.2714
     51  N         13.5080   58.9100   26.8730 N.am   60  GLU60      -0.1977
     52  CA        13.8620   58.9930   25.4640 C.3    60  GLU60       0.1602
     53  C         13.3110   57.7140   24.8550 C.2    60  GLU60       0.2287
     54  O         12.8660   56.8210   25.5810 O.2    60  GLU60      -0.2864
     55  CB        15.3810   59.0250   25.2940 C.3    60  GLU60       0.0415
     56  CG        16.0450   60.2740   25.8430 C.3    60  GLU60       0.1163
     57  CD        17.5560   60.1570   25.8740 C.2    60  GLU60       0.3649
     58  OE1       18.1560   59.8650   24.8160 O.co2  60  GLU60      -0.2457
     59  OE2       18.1450   60.3560   26.9570 O.co2  60  GLU60      -0.2457
     60  N          4.6100   53.1730   28.1900 N.3    81  ARG81      -0.1245
     61  CA         5.5110   52.3850   29.0220 C.3    81  ARG81       0.1563
     62  C          4.8040   51.5300   30.0640 C.2    81  ARG81       0.2260
     63  O          5.4270   50.6650   30.6800 O.2    81  ARG81      -0.2867
     64  CB         6.5670   53.2870   29.6800 C.3    81  ARG81       0.0307
     65  CG         7.5660   53.8670   28.6720 C.3    81  ARG81       0.0489
     66  CD         8.5700   54.8120   29.3180 C.3    81  ARG81       0.2205
     67  NE         9.5850   54.1140   30.1080 N.pl3  81  ARG81      -0.0865
     68  CZ        10.5740   54.7260   30.7500 C.cat  81  ARG81       0.5346
     69  NH1       10.6750   56.0480   30.7020 N.pl3  81  ARG81       0.1354
     70  NH2       11.4780   54.0180   31.4180 N.pl3  81  ARG81       0.1354
     71  N          7.2980   61.9960   35.8020 N.3   108  ASP108     -0.1239
     72  CA         8.7330   61.7640   35.6950 C.3   108  ASP108      0.1674
     73  C          9.3160   63.1780   35.7650 C.2   108  ASP108      0.2266
     74  O          8.8440   64.0780   35.0720 O.2   108  ASP108     -0.2867
     75  CB         8.9980   61.1400   34.3200 C.3   108  ASP108      0.1410
     76  CG        10.4540   60.8460   34.0580 C.2   108  ASP108      0.3668
     77  OD1       11.3370   61.3430   34.7910 O.co2 108  ASP108     -0.2456
     78  OD2       10.7100   60.1120   33.0820 O.co2 108  ASP108     -0.2456
     79  N         12.3910   64.0190   34.9500 N.3   110  GLY110     -0.1210
     80  CA        13.3840   64.2320   33.9160 C.3   110  GLY110      0.1956
     81  C         14.7730   64.3320   34.5100 C.2   110  GLY110      0.2611
     82  O         14.9310   64.4150   35.7290 O.2   110  GLY110     -0.2717
     83  N         15.7860   64.3200   33.6520 N.am  111  MET111     -0.1979
     84  CA        17.1650   64.4130   34.1100 C.3   111  MET111      0.1605
     85  C         17.6370   65.8640   34.1380 C.2   111  MET111      0.2287
     86  O         18.8340   66.1440   34.0550 O.2   111  MET111     -0.2864
     87  CB        18.0700   63.5650   33.2090 C.3   111  MET111      0.0413
     88  CG        17.8230   63.7460   31.7200 C.3   111  MET111      0.0598
     89  SD        18.7090   62.5200   30.7270 S.3   111  MET111     -0.1393
     90  CE        20.2160   63.4170   30.3360 C.3   111  MET111      0.0692
     91  N         19.9860   60.3290   39.5510 N.3   157  HIS157     -0.1241
     92  CA        18.7810   60.8730   38.9320 C.3   157  HIS157      0.1621
     93  C         17.9140   61.5020   40.0250 C.2   157  HIS157      0.2264
     94  O         17.7490   60.9270   41.0970 O.2   157  HIS157     -0.2867
     95  CB        18.0060   59.7550   38.2270 C.3   157  HIS157      0.0745
     96  CG        16.8310   60.2390   37.4340 C.ar  157  HIS157      0.0817
     97  ND1       16.7560   60.1150   36.0630 N.ar  157  HIS157     -0.2268
     98  CD2       15.6890   60.8580   37.8170 C.ar  157  HIS157      0.1154
     99  CE1       15.6200   60.6370   35.6360 C.ar  157  HIS157      0.1986
    100  NE2       14.9540   61.0960   36.6810 N.ar  157  HIS157     -0.2212
    101  N         15.3290   59.2120   41.5610 N.3   160  HIS160     -0.1241
    102  CA        15.8290   58.1010   42.3620 C.3   160  HIS160      0.1621
    103  C         16.1250   58.6250   43.7580 C.2   160  HIS160      0.2264
    104  O         15.8150   57.9750   44.7560 O.2   160  HIS160     -0.2867
    105  CB        17.0960   57.4950   41.7510 C.3   160  HIS160      0.0745
    106  CG        16.8430   56.6790   40.5210 C.ar  160  HIS160      0.0817
    107  ND1       17.7570   55.7710   40.0300 N.ar  160  HIS160     -0.2268
    108  CD2       15.7870   56.6420   39.6750 C.ar  160  HIS160      0.1154
    109  CE1       17.2750   55.2110   38.9350 C.ar  160  HIS160      0.1986
    110  NE2       16.0810   55.7220   38.6970 N.ar  160  HIS160     -0.2212
    111  N         13.4650   51.5260   25.9050 N.3   254  GLN254     -0.1245
    112  CA        14.5390   51.9690   26.7950 C.3   254  GLN254      0.1566
    113  C         15.8260   51.1520   26.7690 C.2   254  GLN254      0.2260
    114  O         16.9090   51.6850   27.0110 O.2   254  GLN254     -0.2867
    115  CB        14.0420   51.9780   28.2450 C.3   254  GLN254      0.0367
    116  CG        12.7830   52.7840   28.4920 C.3   254  GLN254      0.0905
    117  CD        12.9490   54.2280   28.0900 C.2   254  GLN254      0.2608
    118  OE1       13.8550   54.9170   28.5680 O.2   254  GLN254     -0.2717
    119  NE2       12.0800   54.6980   27.2020 N.am  254  GLN254     -0.0878
    120  N         21.6120   51.0710   27.1220 N.3   266  LEU266     -0.1245
    121  CA        20.5400   52.0540   27.0960 C.3   266  LEU266      0.1561
    122  C         20.7770   52.9070   25.8510 C.2   266  LEU266      0.2260
    123  O         21.5630   52.5290   24.9830 O.2   266  LEU266     -0.2867
    124  CB        20.5890   52.9230   28.3560 C.3   266  LEU266      0.0270
    125  CG        20.4360   52.1860   29.6900 C.3   266  LEU266      0.0019
    126  CD1       20.5190   53.1830   30.8390 C.3   266  LEU266      0.0001
    127  CD2       19.1040   51.4520   29.7250 C.3   266  LEU266      0.0001
@<TRIPOS>BOND
     1    58    57   ar
     2    53    52    1
     3    53    54    2
     4   123   122    2
     5    55    52    1
     6    55    56    1
     7    52    51    1
     8    56    57    1
     9   122   121    1
    10    57    59   ar
    11   111   112    1
    12    50    49    2
    13   113   112    1
    14   113   114    2
    15   112   115    1
    16    51    49   am
    17   121   120    1
    18   121   124    1
    19   119   117   am
    20    49    48    1
    21   117   116    1
    22   117   118    2
    23    60    61    1
    24   115   116    1
    25   124   125    1
    26    65    66    1
    27    65    64    1
    28    48    47    1
    29    61    64    1
    30    61    62    1
    31    41    40    2
    32    66    67    1
    33    47    40   am
    34    40    39    1
    35   125   127    1
    36   125   126    1
    37    45    44   ar
    38    62    63    2
    39    67    68    2
    40    39    38    1
    41    39    42    1
    42    90    89    1
    43    46    44   ar
    44    44    43    1
    45    37    36    2
    46    69    68    1
    47    89    88    1
    48    68    70    1
    49    42    43    1
    50    24    23   ar
    51    88    87    1
    52    36    35    1
    53    22    23    1
    54    22    19    1
    55    23    25   ar
    56    35    34    1
    57    78    76   ar
    58    14    13    2
    59    87    84    1
    60    15    16    1
    61    15    12    1
    62    83    84    1
    63    83    81   am
    64    16    17    1
    65    80    81    1
    66    80    79    1
    67    19    18    1
    68    19    20    1
    69    13    18   am
    70    13    12    1
    71    86    85    2
    72    76    75    1
    73    76    77   ar
    74    84    85    1
    75    75    72    1
    76    17    11    1
    77    12    11    1
    78    81    82    2
    79    21    20    2
    80    20    26   am
    81    11     3   am
    82    74    73    2
    83     5     6    1
    84     5     2    1
    85    99    97   ar
    86    99   100   ar
    87    72    73    1
    88    72    71    1
    89    26    27    1
    90    97    96   ar
    91     6     8   ar
    92     6     7   ar
    93     3     2    1
    94     3     4    2
    95     8    10   ar
    96     7     9   ar
    97     2     1    1
    98    10     9   ar
    99   100    98   ar
   100    32    31   ar
   101    27    28    1
   102    27    30    1
   103    96    98   ar
   104    96    95    1
   105    31    33   ar
   106    31    30    1
   107    28    29    2
   108    95    92    1
   109   110   109   ar
   110   110   108   ar
   111    92    91    1
   112    92    93    1
   113   109   107   ar
   114   108   106   ar
   115    93    94    2
   116   107   106   ar
   117   106   105    1
   118   101   102    1
   119   105   102    1
   120   102   103    1
   121   103   104    2
