@<TRIPOS>MOLECULE
tmp/1q7tB01.pdb
 119 114 0 0 0
SMALL
GASTEIGER

@<TRIPOS>ATOM
      1  N         10.2430   14.8650   31.8600 N.3    11  HIS11      -0.1227
      2  CA         9.6310   14.5180   30.5770 C.3    11  HIS11       0.1737
      3  C          9.5800   13.0150   30.3310 C.2    11  HIS11       0.2438
      4  O         10.2420   12.2420   31.0140 O.2    11  HIS11      -0.2733
      5  CB        10.4290   15.1370   29.4210 C.3    11  HIS11       0.0758
      6  CG        10.8940   16.5390   29.6740 C.ar   11  HIS11       0.0818
      7  ND1       12.2260   16.8950   29.6380 N.ar   11  HIS11      -0.2268
      8  CD2       10.2060   17.6750   29.9360 C.ar   11  HIS11       0.1154
      9  CE1       12.3380   18.1920   29.8680 C.ar   11  HIS11       0.1986
     10  NE2       11.1270   18.6880   30.0510 N.ar   11  HIS11      -0.2212
     11  N          8.7820   12.5850   29.3410 N.am   12  PRO12      -0.2718
     12  CA         8.6810   11.1570   29.0240 C.3    12  PRO12       0.1535
     13  C         10.0420   10.6470   28.5350 C.2    12  PRO12       0.2599
     14  O         10.6900   11.2930   27.7120 O.2    12  PRO12      -0.2715
     15  CB         7.6320   11.1240   27.9150 C.3    12  PRO12       0.0310
     16  CG         6.7540   12.2880   28.2440 C.3    12  PRO12       0.0237
     17  CD         7.7710   13.3570   28.5970 C.3    12  PRO12       0.0939
     18  N         10.4480    9.4910   29.0520 N.am   13  ASP13      -0.1958
     19  CA        11.7080    8.8080   28.7330 C.3    13  ASP13       0.1840
     20  C         12.8450    9.0920   29.7090 C.2    13  ASP13       0.2622
     21  O         13.8400    8.3770   29.7140 O.2    13  ASP13      -0.2715
     22  CB        12.1470    9.0450   27.2660 C.3    13  ASP13       0.1450
     23  CG        13.0060   10.2920   27.0630 C.2    13  ASP13       0.3671
     24  OD1       13.1580   10.6840   25.8850 O.co2  13  ASP13      -0.2456
     25  OD2       13.5390   10.8730   28.0320 O.co2  13  ASP13      -0.2456
     26  N         12.6980   10.1240   30.5380 N.am   14  ASP14      -0.1971
     27  CA        13.7220   10.4290   31.5410 C.3    14  ASP14       0.1709
     28  C         13.7560    9.2730   32.5280 C.2    14  ASP14       0.2293
     29  O         14.8050    8.9410   33.0830 O.2    14  ASP14      -0.2864
     30  CB        13.3910   11.7050   32.3290 C.3    14  ASP14       0.1436
     31  CG        13.7460   12.9680   31.5820 C.2    14  ASP14       0.3671
     32  OD1       14.8270   12.9960   30.9630 O.co2  14  ASP14      -0.2456
     33  OD2       12.9590   13.9380   31.6280 O.co2  14  ASP14      -0.2456
     34  N         15.7410    6.3070   30.6390 N.3    17  LEU17      -0.1245
     35  CA        17.1560    6.6060   30.4580 C.3    17  LEU17       0.1561
     36  C         17.9550    6.5900   31.7600 C.2    17  LEU17       0.2260
     37  O         19.0590    6.0590   31.8060 O.2    17  LEU17      -0.2867
     38  CB        17.3220    7.9750   29.7860 C.3    17  LEU17       0.0270
     39  CG        17.0010    8.0720   28.2930 C.3    17  LEU17       0.0019
     40  CD1       16.9910    9.5380   27.8570 C.3    17  LEU17       0.0001
     41  CD2       18.0340    7.2850   27.4990 C.3    17  LEU17       0.0001
     42  N         10.0310   18.7100   22.7450 N.3    44  GLY44      -0.1225
     43  CA        11.0600   17.7860   22.3040 C.3    44  GLY44       0.1811
     44  C         11.3480   17.7780   20.8110 C.2    44  GLY44       0.2280
     45  O         10.5780   18.3030   19.9990 O.2    44  GLY44      -0.2866
     46  N          3.6480   11.5840   22.6440 N.3    66  ARG66      -0.1245
     47  CA         4.5610   10.9660   23.6010 C.3    66  ARG66       0.1563
     48  C          3.8560   10.2710   24.7580 C.2    66  ARG66       0.2260
     49  O          4.4760    9.5210   25.5140 O.2    66  ARG66      -0.2867
     50  CB         5.5740   12.0010   24.1080 C.3    66  ARG66       0.0307
     51  CG         6.5630   12.4020   23.0170 C.3    66  ARG66       0.0489
     52  CD         7.5600   13.4580   23.4660 C.3    66  ARG66       0.2205
     53  NE         8.5950   12.9430   24.3660 N.pl3  66  ARG66      -0.0865
     54  CZ         9.5850   13.6890   24.8500 C.cat  66  ARG66       0.5346
     55  NH1        9.6660   14.9730   24.5200 N.pl3  66  ARG66       0.1354
     56  NH2       10.4990   13.1570   25.6540 N.pl3  66  ARG66       0.1354
     57  N          6.1360   21.6120   28.7630 N.3    93  ASP93      -0.1239
     58  CA         7.5810   21.4270   28.6760 C.3    93  ASP93       0.1674
     59  C          8.0880   22.8620   28.5060 C.2    93  ASP93       0.2266
     60  O          7.5540   23.6190   27.6940 O.2    93  ASP93      -0.2867
     61  CB         7.8640   20.5790   27.4200 C.3    93  ASP93       0.1410
     62  CG         9.3440   20.4090   27.1090 C.2    93  ASP93       0.3668
     63  OD1       10.2040   21.0890   27.7150 O.co2  93  ASP93      -0.2456
     64  OD2        9.6360   19.5760   26.2160 O.co2  93  ASP93      -0.2456
     65  N         21.8420   17.4180   33.3580 N.3   140  TYR140     -0.1241
     66  CA        22.6980   18.2160   32.4870 C.3   140  TYR140      0.1605
     67  C         22.3540   19.6970   32.5860 C.2   140  TYR140      0.2264
     68  O         23.0900   20.5460   32.0860 O.2   140  TYR140     -0.2867
     69  CB        22.6190   17.7350   31.0240 C.3   140  TYR140      0.0534
     70  CG        21.4050   18.1660   30.2250 C.ar  140  TYR140     -0.0201
     71  CD1       21.1430   19.5160   29.9730 C.ar  140  TYR140     -0.0009
     72  CD2       20.5380   17.2190   29.6800 C.ar  140  TYR140     -0.0009
     73  CE1       20.0520   19.9090   29.1990 C.ar  140  TYR140      0.0417
     74  CE2       19.4420   17.6020   28.9030 C.ar  140  TYR140      0.0417
     75  CZ        19.2070   18.9480   28.6670 C.ar  140  TYR140      0.1957
     76  OH        18.1310   19.3340   27.9010 O.3   140  TYR140     -0.2866
     77  N         18.8390   20.9560   32.0730 N.3   142  HIS142     -0.1241
     78  CA        17.5980   21.3630   31.4160 C.3   142  HIS142      0.1621
     79  C         16.7330   22.0770   32.4570 C.2   142  HIS142      0.2264
     80  O         16.6080   21.6090   33.5870 O.2   142  HIS142     -0.2867
     81  CB        16.8350   20.1530   30.8750 C.3   142  HIS142      0.0745
     82  CG        15.6120   20.5190   30.0930 C.ar  142  HIS142      0.0817
     83  ND1       15.5590   20.4510   28.7170 N.ar  142  HIS142     -0.2268
     84  CD2       14.4110   21.0010   30.4920 C.ar  142  HIS142      0.1154
     85  CE1       14.3780   20.8740   28.3020 C.ar  142  HIS142      0.1986
     86  NE2       13.6630   21.2150   29.3590 N.ar  142  HIS142     -0.2212
     87  N         14.3080   19.9940   34.5010 N.3   145  HIS145     -0.1241
     88  CA        14.9290   19.0600   35.4400 C.3   145  HIS145      0.1621
     89  C         15.2780   19.8020   36.7310 C.2   145  HIS145      0.2264
     90  O         15.0810   19.2900   37.8290 O.2   145  HIS145     -0.2867
     91  CB        16.1860   18.4440   34.8240 C.3   145  HIS145      0.0745
     92  CG        15.9060   17.5220   33.6780 C.ar  145  HIS145      0.0817
     93  ND1       16.9050   16.9610   32.9120 N.ar  145  HIS145     -0.2268
     94  CD2       14.7400   17.0590   33.1680 C.ar  145  HIS145      0.1154
     95  CE1       16.3680   16.1940   31.9800 C.ar  145  HIS145      0.1986
     96  NE2       15.0540   16.2360   32.1130 N.ar  145  HIS145     -0.2212
     97  N         12.4340    9.7490   20.4050 N.3   239  GLN239     -0.1245
     98  CA        13.5510   10.2950   21.1750 C.3   239  GLN239      0.1566
     99  C         14.8140    9.4480   21.1870 C.2   239  GLN239      0.2260
    100  O         15.9190    9.9790   21.3100 O.2   239  GLN239     -0.2867
    101  CB        13.1240   10.4940   22.6370 C.3   239  GLN239      0.0367
    102  CG        11.8410   11.2700   22.8280 C.3   239  GLN239      0.0905
    103  CD        11.9510   12.6740   22.2870 C.2   239  GLN239      0.2608
    104  OE1       12.8350   13.4300   22.6810 O.2   239  GLN239     -0.2717
    105  NE2       11.0560   13.0310   21.3780 N.am  239  GLN239     -0.0878
    106  N         20.7390    9.2220   20.7810 N.3   251  LEU251     -0.1231
    107  CA        19.7480   10.2770   20.9240 C.3   251  LEU251      0.1693
    108  C         19.6500   11.0650   19.6180 C.2   251  LEU251      0.2592
    109  O         20.3250   10.7480   18.6370 O.2   251  LEU251     -0.2718
    110  CB        20.1240   11.2090   22.0760 C.3   251  LEU251      0.0284
    111  CG        20.2600   10.5350   23.4440 C.3   251  LEU251      0.0019
    112  CD1       20.5830   11.5900   24.4900 C.3   251  LEU251      0.0001
    113  CD2       18.9730    9.8020   23.8030 C.3   251  LEU251      0.0001
    114  N         18.8160   12.0980   19.6280 N.am  252  SER252     -0.1952
    115  CA        18.5630   12.9450   18.4630 C.3   252  SER252      0.1924
    116  C         19.7490   13.3390   17.5750 C.2   252  SER252      0.2314
    117  O         19.6380   13.3060   16.3470 O.2   252  SER252     -0.2863
    118  CB        17.8290   14.2140   18.9120 C.3   252  SER252      0.2116
    119  OG        17.2800   14.9080   17.8070 O.3   252  SER252     -0.2180
@<TRIPOS>BOND
     1   117   116    2
     2   116   115    1
     3   119   118    1
     4   115   118    1
     5   115   114    1
     6   109   108    2
     7   108   114   am
     8   108   107    1
     9    45    44    2
    10    97    98    1
    11   106   107    1
    12    44    43    1
    13   107   110    1
    14    98    99    1
    15    98   101    1
    16    99   100    2
    17   105   103   am
    18   110   111    1
    19   103   104    2
    20   103   102    1
    21    43    42    1
    22   101   102    1
    23    46    47    1
    24    51    52    1
    25    51    50    1
    26   111   113    1
    27   111   112    1
    28    52    53    1
    29    47    50    1
    30    47    48    1
    31    53    54    2
    32    55    54    1
    33    48    49    2
    34    54    56    1
    35    24    23   ar
    36    64    62   ar
    37    23    22    1
    38    23    25   ar
    39    62    61    1
    40    62    63   ar
    41    22    19    1
    42    61    58    1
    43    41    39    1
    44    60    59    2
    45    14    13    2
    46    40    39    1
    47    76    75    1
    48    15    16    1
    49    15    12    1
    50    16    17    1
    51    39    38    1
    52    85    83   ar
    53    85    86   ar
    54    59    58    1
    55    13    12    1
    56    13    18   am
    57    17    11    1
    58    75    74   ar
    59    75    73   ar
    60    58    57    1
    61    83    82   ar
    62    19    18    1
    63    19    20    1
    64    74    72   ar
    65    12    11    1
    66    73    71   ar
    67    11     3   am
    68    86    84   ar
    69     5     6    1
    70     5     2    1
    71     7     6   ar
    72     7     9   ar
    73     6     8   ar
    74    72    70   ar
    75    20    21    2
    76    20    26   am
    77    38    35    1
    78     9    10   ar
    79     8    10   ar
    80    71    70   ar
    81    82    84   ar
    82    82    81    1
    83    70    69    1
    84     3     2    1
    85     3     4    2
    86    35    34    1
    87    35    36    1
    88    26    27    1
    89     2     1    1
    90    81    78    1
    91    32    31   ar
    92    69    66    1
    93    78    77    1
    94    78    79    1
    95    27    30    1
    96    27    28    1
    97    31    33   ar
    98    31    30    1
    99    36    37    2
   100    95    96   ar
   101    95    93   ar
   102    68    67    2
   103    96    94   ar
   104    79    80    2
   105    66    67    1
   106    66    65    1
   107    28    29    2
   108    93    92   ar
   109    94    92   ar
   110    92    91    1
   111    87    88    1
   112    91    88    1
   113    88    89    1
   114    89    90    2
