@<TRIPOS>MOLECULE
tmp/1q7tA00.pdb
 104 100 0 0 0
SMALL
GASTEIGER

@<TRIPOS>ATOM
      1  N          3.9380   26.8420   51.3080 N.3     8  LEU8       -0.1231
      2  CA         5.3590   26.5390   51.1900 C.3     8  LEU8        0.1693
      3  C          6.2530   26.9530   52.3520 C.2     8  LEU8        0.2592
      4  O          7.3370   26.3790   52.5420 O.2     8  LEU8       -0.2718
      5  CB         5.8920   27.1650   49.9030 C.3     8  LEU8        0.0284
      6  CG         5.0990   26.7890   48.6490 C.3     8  LEU8        0.0019
      7  CD1        5.5740   27.6120   47.4680 C.3     8  LEU8        0.0001
      8  CD2        5.2750   25.2990   48.3680 C.3     8  LEU8        0.0001
      9  N          5.8120   27.9450   53.1200 N.am    9  TYR9       -0.1976
     10  CA         6.6070   28.4430   54.2370 C.3     9  TYR9        0.1639
     11  C          5.8780   28.5260   55.5610 C.2     9  TYR9        0.2290
     12  O          4.6560   28.6910   55.6170 O.2     9  TYR9       -0.2864
     13  CB         7.1120   29.8630   53.9680 C.3     9  TYR9        0.0560
     14  CG         7.9670   30.0590   52.7480 C.ar    9  TYR9       -0.0198
     15  CD1        7.3970   30.1820   51.4820 C.ar    9  TYR9       -0.0009
     16  CD2        9.3500   30.1920   52.8670 C.ar    9  TYR9       -0.0009
     17  CE1        8.1860   30.4440   50.3600 C.ar    9  TYR9        0.0417
     18  CE2       10.1440   30.4500   51.7590 C.ar    9  TYR9        0.0417
     19  CZ         9.5570   30.5770   50.5100 C.ar    9  TYR9        0.1957
     20  OH        10.3460   30.8430   49.4170 O.3     9  TYR9       -0.2866
     21  N         13.0360   35.2100   44.0130 N.3    41  TYR41      -0.1241
     22  CA        12.0280   35.0680   45.0530 C.3    41  TYR41       0.1605
     23  C         10.6440   34.6220   44.5770 C.2    41  TYR41       0.2264
     24  O         10.0080   33.7870   45.2230 O.2    41  TYR41      -0.2867
     25  CB        11.9400   36.3620   45.8690 C.3    41  TYR41       0.0534
     26  CG        13.0770   36.4840   46.8720 C.ar   41  TYR41      -0.0201
     27  CD1       14.0250   37.5010   46.7690 C.ar   41  TYR41      -0.0009
     28  CD2       13.2350   35.5360   47.8890 C.ar   41  TYR41      -0.0009
     29  CE1       15.1120   37.5690   47.6510 C.ar   41  TYR41       0.0417
     30  CE2       14.3130   35.5900   48.7720 C.ar   41  TYR41       0.0417
     31  CZ        15.2490   36.6070   48.6460 C.ar   41  TYR41       0.1957
     32  OH        16.3360   36.6410   49.4930 O.3    41  TYR41      -0.2866
     33  N          9.9330   32.7550   42.0380 N.3    43  SER43      -0.1202
     34  CA        10.0130   31.3440   41.6580 C.3    43  SER43       0.2020
     35  C         10.0640   30.4430   42.8920 C.2    43  SER43       0.2619
     36  O          9.7640   29.2490   42.8140 O.2    43  SER43      -0.2717
     37  CB        11.2450   31.0840   40.7890 C.3    43  SER43       0.2103
     38  OG        12.4360   31.1400   41.5550 O.3    43  SER43      -0.2182
     39  N         10.4450   31.0130   44.0310 N.am   44  ARG44      -0.1965
     40  CA        10.5200   30.2420   45.2650 C.3    44  ARG44       0.1729
     41  C          9.2400   30.3840   46.0780 C.2    44  ARG44       0.2616
     42  O          9.1630   29.9270   47.2220 O.2    44  ARG44      -0.2715
     43  CB        11.7390   30.6670   46.0920 C.3    44  ARG44       0.0348
     44  CG        13.0650   30.2000   45.4990 C.3    44  ARG44       0.0492
     45  CD        14.2510   30.9790   46.0530 C.3    44  ARG44       0.2205
     46  NE        14.4440   30.7960   47.4890 N.pl3  44  ARG44      -0.0865
     47  CZ        14.8640   29.6680   48.0550 C.cat  44  ARG44       0.5346
     48  NH1       15.1410   28.6060   47.3100 N.pl3  44  ARG44       0.1354
     49  NH2       15.0160   29.6060   49.3720 N.pl3  44  ARG44       0.1354
     50  N          8.2360   31.0270   45.4850 N.am   45  GLY45      -0.1955
     51  CA         6.9570   31.1680   46.1600 C.3    45  GLY45       0.1869
     52  C          6.7580   32.3790   47.0510 C.2    45  GLY45       0.2309
     53  O          5.7170   32.5060   47.6990 O.2    45  GLY45      -0.2863
     54  N         20.6300   36.0170   51.7420 N.3   298  ASP298     -0.1239
     55  CA        19.1770   35.9490   51.5820 C.3   298  ASP298      0.1674
     56  C         18.5950   37.1920   52.2630 C.2   298  ASP298      0.2266
     57  O         18.8870   37.4600   53.4310 O.2   298  ASP298     -0.2867
     58  CB        18.6470   34.6830   52.2650 C.3   298  ASP298      0.1410
     59  CG        17.1880   34.3980   51.9450 C.2   298  ASP298      0.3668
     60  OD1       16.4090   35.3490   51.7180 O.co2 298  ASP298     -0.2456
     61  OD2       16.8160   33.2040   51.9390 O.co2 298  ASP298     -0.2456
     62  N         15.7660   37.5740   53.3050 N.3   300  LEU300     -0.1231
     63  CA        14.8720   37.1040   54.3640 C.3   300  LEU300      0.1693
     64  C         15.6340   36.5230   55.5510 C.2   300  LEU300      0.2591
     65  O         15.0240   36.0530   56.5120 O.2   300  LEU300     -0.2718
     66  CB        13.9280   36.0340   53.8070 C.3   300  LEU300      0.0284
     67  CG        13.0050   36.4860   52.6750 C.3   300  LEU300      0.0019
     68  CD1       12.2340   35.2920   52.1130 C.3   300  LEU300      0.0001
     69  CD2       12.0400   37.5380   53.2220 C.3   300  LEU300      0.0001
     70  N         16.9620   36.5610   55.4840 N.am  301  ALA301     -0.1980
     71  CA        17.8030   36.0170   56.5430 C.3   301  ALA301      0.1597
     72  C         17.4570   36.5340   57.9330 C.2   301  ALA301      0.2287
     73  O         17.2790   37.7350   58.1380 O.2   301  ALA301     -0.2864
     74  CB        19.2810   36.3020   56.2440 C.3   301  ALA301      0.0319
     75  N         11.9090   32.2030   58.6500 N.3   305  PHE305     -0.1227
     76  CA        11.1160   31.4830   57.6670 C.3   305  PHE305      0.1736
     77  C         11.7590   30.1370   57.4040 C.2   305  PHE305      0.2596
     78  O         12.9780   30.0410   57.2750 O.2   305  PHE305     -0.2718
     79  CB        11.0450   32.2540   56.3500 C.3   305  PHE305      0.0547
     80  CG        10.1220   33.4360   56.3850 C.ar  305  PHE305     -0.0202
     81  CD1        8.7420   33.2560   56.3820 C.ar  305  PHE305     -0.0042
     82  CD2       10.6330   34.7320   56.4230 C.ar  305  PHE305     -0.0042
     83  CE1        7.8790   34.3470   56.4160 C.ar  305  PHE305     -0.0003
     84  CE2        9.7790   35.8310   56.4580 C.ar  305  PHE305     -0.0003
     85  CZ         8.3960   35.6380   56.4540 C.ar  305  PHE305     -0.0000
     86  N         10.9420   29.0950   57.3380 N.am  306  THR306     -0.1939
     87  CA        11.4470   27.7580   57.0460 C.3   306  THR306      0.2028
     88  C         10.5310   27.1190   56.0100 C.2   306  THR306      0.2642
     89  O          9.3530   27.4670   55.9190 O.2   306  THR306     -0.2714
     90  CB        11.4690   26.8530   58.3030 C.3   306  THR306      0.1808
     91  OG1       10.1680   26.8310   58.8980 O.3   306  THR306     -0.2208
     92  CG2       12.4830   27.3640   59.3210 C.3   306  THR306      0.0379
     93  N         11.0720   26.2020   55.2150 N.am  307  ALA307     -0.1977
     94  CA        10.2610   25.5140   54.2190 C.3   307  ALA307      0.1597
     95  C          9.3580   24.5690   55.0060 C.2   307  ALA307      0.2287
     96  O          9.7880   23.9810   55.9980 O.2   307  ALA307     -0.2864
     97  CB        11.1560   24.7280   53.2570 C.3   307  ALA307      0.0319
     98  N         10.2290   21.3290   57.4730 N.3   310  THR310     -0.1218
     99  CA        11.6240   21.3530   57.8980 C.3   310  THR310      0.1862
    100  C         11.7450   22.0890   59.2290 C.2   310  THR310      0.2287
    101  O         12.2630   21.4850   60.1930 O.2   310  THR310     -0.2866
    102  CB        12.5250   22.0550   56.8570 C.3   310  THR310      0.1770
    103  OG1       12.1730   23.4430   56.7750 O.3   310  THR310     -0.2211
    104  CG2       12.3580   21.4110   55.4860 C.3   310  THR310      0.0375
@<TRIPOS>BOND
     1    37    38    1
     2    37    34    1
     3    34    33    1
     4    34    35    1
     5    36    35    2
     6    35    39   am
     7    21    22    1
     8    39    40    1
     9    23    22    1
    10    23    24    2
    11    22    25    1
    12    40    41    1
    13    40    43    1
    14    50    41   am
    15    50    51    1
    16    44    45    1
    17    44    43    1
    18    25    26    1
    19    45    46    1
    20    41    42    2
    21    51    52    1
    22    27    26   ar
    23    27    29   ar
    24    26    28   ar
    25    52    53    2
    26    48    47    1
    27     7     6    1
    28    46    47    2
    29    29    31   ar
    30    28    30   ar
    31    47    49    1
    32     8     6    1
    33    31    30   ar
    34    31    32    1
    35     6     5    1
    36    20    19    1
    37     5     2    1
    38    17    19   ar
    39    17    15   ar
    40    19    18   ar
    41     2     1    1
    42     2     3    1
    43    15    14   ar
    44    55    54    1
    45    55    56    1
    46    55    58    1
    47    60    59   ar
    48    18    16   ar
    49    61    59   ar
    50    59    58    1
    51    68    67    1
    52    56    57    2
    53     3     4    2
    54     3     9   am
    55    67    69    1
    56    67    66    1
    57    14    16   ar
    58    14    13    1
    59     9    10    1
    60    97    94    1
    61    62    63    1
    62    66    63    1
    63    13    10    1
    64    94    95    1
    65    94    93    1
    66    10    11    1
    67    63    64    1
    68    95    96    2
    69    93    88   am
    70    70    64   am
    71    70    71    1
    72   104   102    1
    73    64    65    2
    74    11    12    2
    75    89    88    2
    76    88    87    1
    77    74    71    1
    78    79    80    1
    79    79    76    1
    80    81    80   ar
    81    81    83   ar
    82    80    82   ar
    83    83    85   ar
    84    82    84   ar
    85    85    84   ar
    86    71    72    1
    87   103   102    1
    88   102    99    1
    89    87    86    1
    90    87    90    1
    91    78    77    2
    92    86    77   am
    93    77    76    1
    94    98    99    1
    95    76    75    1
    96    99   100    1
    97    72    73    2
    98    90    91    1
    99    90    92    1
   100   100   101    2
