@<TRIPOS>MOLECULE
tmp/1q8jB01.pdb
 173 156 0 0 0
SMALL
GASTEIGER

@<TRIPOS>ATOM
      1  N         15.5040    5.5020    0.4180 N.3   310  GLU310     -0.1231
      2  CA        14.1780    5.2580   -0.1380 C.3   310  GLU310      0.1699
      3  C         13.4890    6.5310   -0.6230 C.2   310  GLU310      0.2592
      4  O         12.3980    6.4610   -1.1820 O.2   310  GLU310     -0.2718
      5  CB        13.2760    4.6800    0.9500 C.3   310  GLU310      0.0402
      6  CG        12.8930    5.7720    1.9630 C.3   310  GLU310      0.1161
      7  CD        11.9760    5.3030    3.0700 C.2   310  GLU310      0.3649
      8  OE1       11.4920    6.1810    3.8160 O.co2 310  GLU310     -0.2457
      9  OE2       11.7450    4.0800    3.2020 O.co2 310  GLU310     -0.2457
     10  N         14.1080    7.6840   -0.3970 N.am  311  ARG311     -0.1980
     11  CA        13.4580    8.9520   -0.7280 C.3   311  ARG311      0.1597
     12  C         13.0410    9.2950   -2.1650 C.2   311  ARG311      0.2287
     13  O         12.0540   10.0050   -2.3520 O.2   311  ARG311     -0.2864
     14  CB        14.2650   10.1040   -0.1170 C.3   311  ARG311      0.0334
     15  CG        14.4160    9.9550    1.4040 C.3   311  ARG311      0.0492
     16  CD        14.7230   11.2730    2.1120 C.3   311  ARG311      0.2205
     17  NE        13.5900   12.2030    2.1100 N.pl3 311  ARG311     -0.0865
     18  CZ        12.3960   11.9290    2.6270 C.cat 311  ARG311      0.5346
     19  NH1       12.1660   10.7500    3.1890 N.pl3 311  ARG311      0.1354
     20  NH2       11.4320   12.8360    2.5820 N.pl3 311  ARG311      0.1354
     21  N         11.0410    8.4900   -4.2360 N.3   313  ASN313     -0.1240
     22  CA         9.7760    7.7740   -4.4160 C.3   313  ASN313      0.1653
     23  C          8.6180    8.7920   -4.3580 C.2   313  ASN313      0.2266
     24  O          8.4980    9.5350   -3.3860 O.2   313  ASN313     -0.2867
     25  CB         9.6200    6.7510   -3.2870 C.3   313  ASN313      0.1155
     26  CG         8.4870    5.7870   -3.5230 C.2   313  ASN313      0.2627
     27  OD1        7.3580    6.1930   -3.8090 O.2   313  ASN313     -0.2716
     28  ND2        8.7760    4.4930   -3.3980 N.am  313  ASN313     -0.0877
     29  N          5.1920    8.3690   -4.0710 N.3   315  ALA315     -0.1231
     30  CA         4.1350    8.0950   -3.0940 C.3   315  ALA315      0.1694
     31  C          4.0340    9.1250   -1.9640 C.2   315  ALA315      0.2593
     32  O          5.0310    9.4720   -1.3220 O.2   315  ALA315     -0.2718
     33  CB         4.3210    6.7030   -2.5070 C.3   315  ALA315      0.0304
     34  N          2.8150    9.6110   -1.7370 N.am  316  GLY316     -0.1942
     35  CA         2.5670   10.5920   -0.6940 C.3   316  GLY316      0.2014
     36  C          3.3510   11.8890   -0.8070 C.2   316  GLY316      0.2638
     37  O          3.1810   12.7880    0.0170 O.2   316  GLY316     -0.2714
     38  N          4.1990   12.0010   -1.8230 N.am  317  ARG317     -0.1977
     39  CA         5.0150   13.2000   -2.0030 C.3   317  ARG317      0.1597
     40  C          4.6120   13.9950   -3.2480 C.2   317  ARG317      0.2287
     41  O          5.4490   14.2750   -4.1080 O.2   317  ARG317     -0.2864
     42  CB         6.4910   12.8010   -2.1110 C.3   317  ARG317      0.0334
     43  CG         6.9560   11.8420   -1.0260 C.3   317  ARG317      0.0492
     44  CD         8.4520   11.6320   -1.1000 C.3   317  ARG317      0.2205
     45  NE         9.1650   12.9060   -1.0920 N.pl3 317  ARG317     -0.0865
     46  CZ        10.4810   13.0300   -0.9380 C.cat 317  ARG317      0.5346
     47  NH1       11.2390   11.9510   -0.7740 N.pl3 317  ARG317      0.1354
     48  NH2       11.0450   14.2310   -0.9560 N.pl3 317  ARG317      0.1354
     49  N         17.5560    4.0600   -4.0110 N.3   348  ASP348     -0.1239
     50  CA        16.4200    3.4610   -4.6770 C.3   348  ASP348      0.1674
     51  C         15.8390    4.5930   -5.5160 C.2   348  ASP348      0.2266
     52  O         15.7050    5.7270   -5.0540 O.2   348  ASP348     -0.2867
     53  CB        15.3920    2.9710   -3.6500 C.3   348  ASP348      0.1410
     54  CG        14.2840    2.1300   -4.2730 C.2   348  ASP348      0.3668
     55  OD1       14.5820    1.0720   -4.8620 O.co2 348  ASP348     -0.2456
     56  OD2       13.1030    2.5150   -4.1630 O.co2 348  ASP348     -0.2456
     57  N         12.5630    5.3320   -7.9470 N.3   350  ASN350     -0.1240
     58  CA        11.2750    4.8680   -8.4310 C.3   350  ASN350      0.1653
     59  C         10.5280    6.0710   -9.0020 C.2   350  ASN350      0.2266
     60  O         10.7390    7.2050   -8.5630 O.2   350  ASN350     -0.2867
     61  CB        10.4940    4.2340   -7.2870 C.3   350  ASN350      0.1155
     62  CG         9.0150    4.2320   -7.5350 C.2   350  ASN350      0.2627
     63  OD1        8.3670    5.2800   -7.4650 O.2   350  ASN350     -0.2716
     64  ND2        8.4640    3.0590   -7.8430 N.am  350  ASN350     -0.0877
     65  N         13.7650    0.7380   -9.0370 N.3   380  ASP380     -0.1239
     66  CA        12.4660    0.2930   -8.5400 C.3   380  ASP380      0.1674
     67  C         11.4310    0.5910   -9.6130 C.2   380  ASP380      0.2266
     68  O         10.8280    1.6650   -9.6240 O.2   380  ASP380     -0.2867
     69  CB        12.1230    1.0600   -7.2630 C.3   380  ASP380      0.1410
     70  CG        10.9930    0.4270   -6.4780 C.2   380  ASP380      0.3668
     71  OD1       10.2320   -0.3920   -7.0480 O.co2 380  ASP380     -0.2456
     72  OD2       10.8730    0.7670   -5.2760 O.co2 380  ASP380     -0.2456
     73  N         14.9290   -3.7710   -8.5510 N.3   401  ASN401     -0.1225
     74  CA        13.9990   -3.9600   -7.4550 C.3   401  ASN401      0.1785
     75  C         12.6690   -4.6370   -7.7290 C.2   401  ASN401      0.2597
     76  O         11.8600   -4.1880   -8.5340 O.2   401  ASN401     -0.2718
     77  CB        13.7610   -2.6240   -6.7400 C.3   401  ASN401      0.1169
     78  CG        12.8730   -2.7720   -5.5270 C.2   401  ASN401      0.2627
     79  OD1       12.4210   -3.8780   -5.2210 O.2   401  ASN401     -0.2716
     80  ND2       12.6110   -1.6760   -4.8390 N.am  401  ASN401     -0.0877
     81  N         12.4670   -5.7270   -6.9950 N.am  402  SER402     -0.1952
     82  CA        11.2640   -6.5290   -7.0390 C.3   402  SER402      0.1924
     83  C         11.1750   -7.4520   -8.2510 C.2   402  SER402      0.2314
     84  O         11.4980   -7.0900   -9.3730 O.2   402  SER402     -0.2863
     85  CB        10.0280   -5.6220   -6.9760 C.3   402  SER402      0.2116
     86  OG        10.1390   -4.6530   -5.9440 O.3   402  SER402     -0.2180
     87  N         16.3850   -8.1540   -6.7620 N.3   425  ILE425     -0.1245
     88  CA        15.7240   -8.3360   -5.4760 C.3   425  ILE425      0.1561
     89  C         14.5120   -9.2280   -5.7810 C.2   425  ILE425      0.2260
     90  O         13.6680   -8.8880   -6.6250 O.2   425  ILE425     -0.2867
     91  CB        15.1870   -7.0220   -4.8900 C.3   425  ILE425      0.0252
     92  CG1       16.3420   -6.0900   -4.5180 C.3   425  ILE425      0.0019
     93  CG2       14.2930   -7.3370   -3.6910 C.3   425  ILE425      0.0019
     94  CD1       15.8860   -4.7870   -3.9280 C.3   425  ILE425      0.0001
     95  N         11.1510  -10.7700   -4.3760 N.3   427  LEU427     -0.1245
     96  CA        10.1280  -10.5850   -3.3660 C.3   427  LEU427      0.1561
     97  C          9.3900  -11.9110   -3.1500 C.2   427  LEU427      0.2260
     98  O          8.9200  -12.5320   -4.1030 O.2   427  LEU427     -0.2867
     99  CB         9.1710   -9.4910   -3.8520 C.3   427  LEU427      0.0270
    100  CG         8.3100   -8.6990   -2.8740 C.3   427  LEU427      0.0019
    101  CD1        9.1790   -8.1250   -1.7590 C.3   427  LEU427      0.0001
    102  CD2        7.6080   -7.5850   -3.6330 C.3   427  LEU427      0.0001
    103  N         13.8370  -10.3550   -0.3930 N.3   456  ASP456     -0.1239
    104  CA        13.0320   -9.4180    0.3750 C.3   456  ASP456      0.1674
    105  C         11.8470  -10.2380    0.9010 C.2   456  ASP456      0.2266
    106  O         10.9550  -10.6070    0.1430 O.2   456  ASP456     -0.2867
    107  CB        12.5480   -8.2860   -0.5400 C.3   456  ASP456      0.1410
    108  CG        11.6360   -7.2890    0.1710 C.2   456  ASP456      0.3668
    109  OD1       11.4120   -6.2000   -0.4000 O.co2 456  ASP456     -0.2456
    110  OD2       11.1370   -7.5870    1.2850 O.co2 456  ASP456     -0.2456
    111  N          9.2690   -9.3840    2.4400 N.3   458  GLY458     -0.1210
    112  CA         7.9760   -8.7220    2.3450 C.3   458  GLY458      0.1956
    113  C          7.4050   -8.1620    3.6330 C.2   458  GLY458      0.2611
    114  O          6.6180   -8.8210    4.3070 O.2   458  GLY458     -0.2717
    115  N          7.7870   -6.9350    3.9640 N.am  459  VAL459     -0.1979
    116  CA         7.3140   -6.2890    5.1800 C.3   459  VAL459      0.1595
    117  C          5.9490   -5.6500    4.9930 C.2   459  VAL459      0.2287
    118  O          5.7990   -4.7270    4.1910 O.2   459  VAL459     -0.2864
    119  CB         8.3010   -5.1980    5.6530 C.3   459  VAL459      0.0276
    120  CG1        7.7000   -4.3890    6.8110 C.3   459  VAL459      0.0022
    121  CG2        9.6040   -5.8490    6.0990 C.3   459  VAL459      0.0022
    122  N         16.9280   -7.9350    2.3000 N.3   486  THR486     -0.1218
    123  CA        16.6040   -6.5150    2.3650 C.3   486  THR486      0.1862
    124  C         15.1290   -6.4570    2.6810 C.2   486  THR486      0.2287
    125  O         14.4480   -7.4890    2.6590 O.2   486  THR486     -0.2866
    126  CB        16.8560   -5.7790    1.0120 C.3   486  THR486      0.1770
    127  OG1       16.9020   -4.3600    1.2400 O.3   486  THR486     -0.2211
    128  CG2       15.7320   -6.0720    0.0160 C.3   486  THR486      0.0375
    129  N         11.6520   -3.3330    2.8020 N.3   488  GLY488     -0.1225
    130  CA        11.2310   -1.9590    2.6230 C.3   488  GLY488      0.1811
    131  C         10.8900   -1.6610    4.0750 C.2   488  GLY488      0.2280
    132  O          9.7900   -1.9730    4.5220 O.2   488  GLY488     -0.2866
    133  N         10.3870    1.2570    6.0290 N.3   490  SER490     -0.1202
    134  CA         9.2650    2.1380    6.3640 C.3   490  SER490      0.2020
    135  C          7.8420    1.5730    6.2060 C.2   490  SER490      0.2618
    136  O          6.8880    2.1900    6.6840 O.2   490  SER490     -0.2717
    137  CB         9.3750    3.4470    5.5860 C.3   490  SER490      0.2103
    138  OG        10.5890    4.1060    5.8810 O.3   490  SER490     -0.2182
    139  N          7.6950    0.4130    5.5620 N.am  491  ASN491     -0.1974
    140  CA         6.3770   -0.2040    5.3470 C.3   491  ASN491      0.1688
    141  C          5.7370   -0.7060    6.6330 C.2   491  ASN491      0.2292
    142  O          4.5040   -0.7320    6.7730 O.2   491  ASN491     -0.2864
    143  CB         6.4850   -1.3900    4.3870 C.3   491  ASN491      0.1181
    144  CG         6.5170   -0.9700    2.9320 C.2   491  ASN491      0.2629
    145  OD1        5.4820   -0.6130    2.3560 O.2   491  ASN491     -0.2716
    146  ND2        7.6900   -0.9990    2.3360 N.am  491  ASN491     -0.0877
    147  N          6.2360    6.4480   13.6800 N.3   496  ARG496     -0.1245
    148  CA         6.7720    5.3920   12.8360 C.3   496  ARG496      0.1563
    149  C          8.2920    5.2580   12.9210 C.2   496  ARG496      0.2260
    150  O          8.8310    4.1720   12.7230 O.2   496  ARG496     -0.2867
    151  CB         6.3070    5.6110   11.3910 C.3   496  ARG496      0.0307
    152  CG         6.6530    6.9450   10.7970 C.3   496  ARG496      0.0489
    153  CD         5.7040    7.2970    9.6410 C.3   496  ARG496      0.2205
    154  NE         5.5500    6.2450    8.6290 N.pl3 496  ARG496     -0.0865
    155  CZ         6.5380    5.7090    7.9050 C.cat 496  ARG496      0.5346
    156  NH1        6.2580    4.7680    7.0050 N.pl3 496  ARG496      0.1354
    157  NH2        7.8030    6.0890    8.0790 N.pl3 496  ARG496      0.1354
    158  N         15.8870   -0.8250    2.5810 N.3   516  ILE516     -0.1245
    159  CA        15.4430    0.3420    1.8330 C.3   516  ILE516      0.1561
    160  C         14.8280    1.1360    2.9790 C.2   516  ILE516      0.2260
    161  O         13.8210    0.7320    3.5530 O.2   516  ILE516     -0.2867
    162  CB        14.3850   -0.0520    0.7770 C.3   516  ILE516      0.0252
    163  CG1       15.0540   -0.9060   -0.3110 C.3   516  ILE516      0.0019
    164  CG2       13.7820    1.1890    0.1640 C.3   516  ILE516      0.0019
    165  CD1       14.0870   -1.6600   -1.2310 C.3   516  ILE516      0.0001
    166  N         14.9750    5.3400    5.2400 N.3   518  ASN518     -0.1240
    167  CA        15.1700    6.7890    5.2250 C.3   518  ASN518      0.1653
    168  C         16.4320    7.2730    5.9350 C.2   518  ASN518      0.2266
    169  O         16.4510    7.3980    7.1640 O.2   518  ASN518     -0.2867
    170  CB        13.9790    7.4520    5.8920 C.3   518  ASN518      0.1155
    171  CG        13.9920    8.9520    5.7510 C.2   518  ASN518      0.2627
    172  OD1       15.0450    9.5690    5.5420 O.2   518  ASN518     -0.2716
    173  ND2       12.8150    9.5580    5.8880 N.am  518  ASN518     -0.0877
@<TRIPOS>BOND
     1    68    67    2
     2    67    66    1
     3    84    83    2
     4    65    66    1
     5    59    60    2
     6    59    58    1
     7    73    74    1
     8    66    69    1
     9    76    75    2
    10    58    57    1
    11    58    61    1
    12    83    82    1
    13    64    62   am
    14    75    74    1
    15    75    81   am
    16    62    63    2
    17    62    61    1
    18    74    77    1
    19    69    70    1
    20    71    70   ar
    21    82    81    1
    22    82    85    1
    23    85    86    1
    24    87    88    1
    25    77    78    1
    26    90    89    2
    27    70    72   ar
    28    89    88    1
    29    78    79    2
    30    78    80   am
    31    51    52    2
    32    51    50    1
    33    88    91    1
    34    91    92    1
    35    91    93    1
    36    55    54   ar
    37    50    49    1
    38    50    53    1
    39    92    94    1
    40    22    23    1
    41    22    21    1
    42    22    25    1
    43    95    96    1
    44    23    24    2
    45    54    56   ar
    46    54    53    1
    47    41    40    2
    48    98    97    2
    49    29    30    1
    50    99    96    1
    51    99   100    1
    52    27    26    2
    53   102   100    1
    54    26    28   am
    55    26    25    1
    56    96    97    1
    57    40    39    1
    58    30    33    1
    59    30    31    1
    60   100   101    1
    61    13    12    2
    62    12    11    1
    63    42    39    1
    64    42    43    1
    65    39    38    1
    66    31    34   am
    67    31    32    2
    68    38    36   am
    69    34    35    1
    70   165   163    1
    71     4     3    2
    72    44    45    1
    73    44    43    1
    74    45    46    2
    75    48    46    1
    76    46    47    1
    77    36    35    1
    78    36    37    2
    79    11    10    1
    80    11    14    1
    81     3    10   am
    82     3     2    1
    83   107   108    1
    84   107   104    1
    85   109   108   ar
    86   103   104    1
    87   163   162    1
    88     2     1    1
    89     2     5    1
    90    14    15    1
    91   128   126    1
    92   106   105    2
    93   164   162    1
    94   108   110   ar
    95   104   105    1
    96   162   159    1
    97     5     6    1
    98   126   127    1
    99   126   123    1
   100    15    16    1
   101   159   158    1
   102   159   160    1
   103     6     7    1
   104    17    16    1
   105    17    18    2
   106   122   123    1
   107   146   144   am
   108   112   111    1
   109   112   113    1
   110   145   144    2
   111   123   124    1
   112    20    18    1
   113   130   129    1
   114   130   131    1
   115    18    19    1
   116   125   124    2
   117   144   143    1
   118   160   161    2
   119     7     9   ar
   120     7     8   ar
   121   113   115   am
   122   113   114    2
   123   115   116    1
   124   131   132    2
   125   118   117    2
   126   143   140    1
   127   117   116    1
   128   116   119    1
   129   167   166    1
   130   167   170    1
   131   167   168    1
   132   140   139    1
   133   140   141    1
   134   172   171    2
   135   139   135   am
   136   137   138    1
   137   137   134    1
   138   119   121    1
   139   119   120    1
   140   171   173   am
   141   171   170    1
   142   168   169    2
   143   133   134    1
   144   135   134    1
   145   135   136    2
   146   141   142    2
   147   156   155    1
   148   155   157    1
   149   155   154    2
   150   154   153    1
   151   153   152    1
   152   152   151    1
   153   151   148    1
   154   150   149    2
   155   148   149    1
   156   148   147    1
