@<TRIPOS>MOLECULE
tmp/1q8pB00.pdb
 107 103 0 0 0
SMALL
GASTEIGER

@<TRIPOS>ATOM
      1  N         -5.9810  -15.6090   -7.5930 N.3    84  ALA84      -0.1231
      2  CA        -4.6890  -14.9350   -7.7180 C.3    84  ALA84       0.1694
      3  C         -4.8320  -13.4590   -7.3400 C.2    84  ALA84       0.2592
      4  O         -5.9460  -12.9410   -7.3050 O.2    84  ALA84      -0.2718
      5  CB        -4.1880  -15.0630   -9.1560 C.3    84  ALA84       0.0304
      6  N         -3.7210  -12.7610   -7.0930 N.am   85  ASP85      -0.1974
      7  CA        -2.3660  -13.3060   -7.1590 C.3    85  ASP85       0.1709
      8  C         -1.6790  -13.4430   -5.8120 C.2    85  ASP85       0.2293
      9  O         -0.7290  -14.2110   -5.6720 O.2    85  ASP85      -0.2864
     10  CB        -1.5130  -12.4270   -8.0720 C.3    85  ASP85       0.1436
     11  CG        -1.6780  -12.7890   -9.5250 C.2    85  ASP85       0.3671
     12  OD1       -0.9970  -13.7420   -9.9580 O.co2  85  ASP85      -0.2456
     13  OD2       -2.5030  -12.1510  -10.2140 O.co2  85  ASP85      -0.2456
     14  N          1.0560   -5.1770  -12.0270 N.3   103  GLY103     -0.1210
     15  CA        -0.0840   -6.0160  -11.7060 C.3   103  GLY103      0.1956
     16  C          0.1820   -7.5090  -11.7200 C.2   103  GLY103      0.2612
     17  O          1.3090   -7.9620  -11.9360 O.2   103  GLY103     -0.2717
     18  N         -0.8710   -8.2790  -11.4730 N.am  104  GLY104     -0.1942
     19  CA        -0.7550   -9.7250  -11.4790 C.3   104  GLY104      0.2014
     20  C          0.2980  -10.3100  -10.5620 C.2   104  GLY104      0.2639
     21  O          0.3550   -9.9880   -9.3710 O.2   104  GLY104     -0.2714
     22  N          1.1410  -11.1670  -11.1330 N.am  105  GLY105     -0.1939
     23  CA         2.1800  -11.8370  -10.3730 C.3   105  GLY105      0.2014
     24  C          3.2630  -10.9530   -9.7890 C.2   105  GLY105      0.2638
     25  O          4.0890  -11.4310   -9.0090 O.2   105  GLY105     -0.2714
     26  N          3.2790   -9.6790  -10.1640 N.am  106  LEU106     -0.1977
     27  CA         4.2800   -8.7640   -9.6280 C.3   106  LEU106      0.1596
     28  C          3.7860   -8.1390   -8.3230 C.2   106  LEU106      0.2287
     29  O          4.4810   -7.3470   -7.6920 O.2   106  LEU106     -0.2864
     30  CB         4.6330   -7.6890  -10.6580 C.3   106  LEU106      0.0297
     31  CG         5.2650   -8.2640  -11.9340 C.3   106  LEU106      0.0022
     32  CD1        5.7040   -7.1250  -12.8390 C.3   106  LEU106      0.0001
     33  CD2        6.4620   -9.1480  -11.5760 C.3   106  LEU106      0.0001
     34  N         -0.7490  -17.9340   -6.7740 N.3   131  PHE131     -0.1241
     35  CA        -0.7410  -18.2610   -8.1980 C.3   131  PHE131      0.1605
     36  C          0.6880  -18.5280   -8.6440 C.2   131  PHE131      0.2264
     37  O          1.5580  -17.6650   -8.5230 O.2   131  PHE131     -0.2867
     38  CB        -1.3310  -17.1070   -8.9990 C.3   131  PHE131      0.0534
     39  CG        -1.6250  -17.4550  -10.4300 C.ar  131  PHE131     -0.0203
     40  CD1       -2.7430  -18.2180  -10.7560 C.ar  131  PHE131     -0.0042
     41  CD2       -0.7710  -17.0450  -11.4480 C.ar  131  PHE131     -0.0042
     42  CE1       -3.0090  -18.5670  -12.0790 C.ar  131  PHE131     -0.0003
     43  CE2       -1.0270  -17.3900  -12.7770 C.ar  131  PHE131     -0.0003
     44  CZ        -2.1490  -18.1520  -13.0900 C.ar  131  PHE131     -0.0000
     45  N          1.4700  -20.4590  -11.8760 N.3   133  ALA133     -0.1245
     46  CA         1.5220  -21.0320  -13.2180 C.3   133  ALA133      0.1562
     47  C          2.9380  -20.8430  -13.7540 C.2   133  ALA133      0.2260
     48  O          3.3970  -19.7180  -13.9360 O.2   133  ALA133     -0.2867
     49  CB         0.5160  -20.3350  -14.1200 C.3   133  ALA133      0.0290
     50  N          4.0870  -20.8970  -16.5000 N.3   135  ASP135     -0.1225
     51  CA         4.1630  -20.2370  -17.8000 C.3   135  ASP135      0.1805
     52  C          4.2370  -18.7190  -17.6680 C.2   135  ASP135      0.2598
     53  O          4.9000  -18.0570  -18.4680 O.2   135  ASP135     -0.2718
     54  CB         2.9570  -20.6150  -18.6680 C.3   135  ASP135      0.1424
     55  CG         1.6430  -20.1320  -18.0850 C.2   135  ASP135      0.3668
     56  OD1        1.2930  -20.5620  -16.9670 O.co2 135  ASP135     -0.2456
     57  OD2        0.9610  -19.3200  -18.7440 O.co2 135  ASP135     -0.2456
     58  N          3.5530  -18.1680  -16.6670 N.am  136  SER136     -0.1938
     59  CA         3.5630  -16.7250  -16.4500 C.3   136  SER136      0.2055
     60  C          4.4220  -16.3420  -15.2440 C.2   136  SER136      0.2643
     61  O          5.2280  -15.4160  -15.3250 O.2   136  SER136     -0.2714
     62  CB         2.1340  -16.1980  -16.2710 C.3   136  SER136      0.2130
     63  OG         1.4810  -16.8320  -15.1880 O.3   136  SER136     -0.2179
     64  N          4.2450  -17.0400  -14.1250 N.am  137  ASN137     -0.1971
     65  CA         5.0480  -16.7620  -12.9340 C.3   137  ASN137      0.1688
     66  C          6.2130  -17.7480  -12.9330 C.2   137  ASN137      0.2292
     67  O          6.3040  -18.6290  -12.0750 O.2   137  ASN137     -0.2864
     68  CB         4.2280  -16.9350  -11.6470 C.3   137  ASN137      0.1181
     69  CG         3.0970  -15.9210  -11.5200 C.2   137  ASN137      0.2629
     70  OD1        2.7750  -15.4810  -10.4140 O.2   137  ASN137     -0.2716
     71  ND2        2.4750  -15.5660  -12.6390 N.am  137  ASN137     -0.0877
     72  N          9.2290  -17.4640  -12.1000 N.3   139  TRP139     -0.1241
     73  CA        10.1140  -17.3710  -10.9410 C.3   139  TRP139      0.1605
     74  C          9.6230  -18.1470   -9.7170 C.2   139  TRP139      0.2264
     75  O         10.3960  -18.4050   -8.7950 O.2   139  TRP139     -0.2867
     76  CB        10.2920  -15.8950  -10.5820 C.3   139  TRP139      0.0550
     77  CG         8.9820  -15.2210  -10.3530 C.ar  139  TRP139      0.0003
     78  CD1        8.2020  -15.3010   -9.2340 C.ar  139  TRP139      0.0946
     79  CD2        8.2200  -14.4900  -11.3200 C.ar  139  TRP139      0.0152
     80  NE1        7.0010  -14.6710   -9.4470 N.ar  139  TRP139     -0.2442
     81  CE2        6.9840  -14.1640  -10.7190 C.ar  139  TRP139      0.0810
     82  CE3        8.4590  -14.0830  -12.6390 C.ar  139  TRP139      0.0012
     83  CZ2        5.9890  -13.4470  -11.3910 C.ar  139  TRP139      0.0191
     84  CZ3        7.4680  -13.3690  -13.3090 C.ar  139  TRP139      0.0001
     85  CH2        6.2480  -13.0600  -12.6810 C.ar  139  TRP139      0.0015
     86  N         -4.4850  -10.5060  -11.5190 N.3   219  GLY219     -0.1210
     87  CA        -4.3240  -10.3180  -12.9450 C.3   219  GLY219      0.1956
     88  C         -5.5480  -10.8760  -13.6390 C.2   219  GLY219      0.2612
     89  O         -6.6600  -10.3950  -13.4260 O.2   219  GLY219     -0.2717
     90  N         -5.3380  -11.9070  -14.4550 N.am  220  GLU220     -0.1965
     91  CA        -6.4170  -12.5710  -15.1910 C.3   220  GLU220      0.1733
     92  C         -7.2560  -13.4240  -14.2390 C.2   220  GLU220      0.2616
     93  O         -8.4500  -13.6200  -14.4640 O.2   220  GLU220     -0.2715
     94  CB        -5.8280  -13.4390  -16.3160 C.3   220  GLU220      0.0429
     95  CG        -5.1330  -12.6270  -17.4130 C.3   220  GLU220      0.1163
     96  CD        -6.0490  -12.2930  -18.5920 C.2   220  GLU220      0.3649
     97  OE1       -6.2020  -13.1620  -19.4760 O.co2 220  GLU220     -0.2457
     98  OE2       -6.6190  -11.1780  -18.6240 O.co2 220  GLU220     -0.2457
     99  N         -6.6210  -13.9390  -13.1870 N.am  221  GLN221     -0.1977
    100  CA        -7.3150  -14.7340  -12.1770 C.3   221  GLN221      0.1601
    101  C         -7.4730  -13.7880  -10.9940 C.2   221  GLN221      0.2287
    102  O         -6.6800  -12.8590  -10.8340 O.2   221  GLN221     -0.2864
    103  CB        -6.4940  -15.9670  -11.7930 C.3   221  GLN221      0.0394
    104  CG        -6.2490  -16.9040  -12.9590 C.3   221  GLN221      0.0908
    105  CD        -7.5310  -17.2740  -13.6740 C.2   221  GLN221      0.2608
    106  OE1       -8.4290  -17.8800  -13.0890 O.2   221  GLN221     -0.2717
    107  NE2       -7.6250  -16.9060  -14.9410 N.am  221  GLN221     -0.0878
@<TRIPOS>BOND
     1    97    96   ar
     2    57    55   ar
     3    54    55    1
     4    54    51    1
     5    98    96   ar
     6    96    95    1
     7    53    52    2
     8    55    56   ar
     9    51    52    1
    10    51    50    1
    11    52    58   am
    12    95    94    1
    13    58    59    1
    14    59    62    1
    15    59    60    1
    16    94    91    1
    17    62    63    1
    18    61    60    2
    19    60    64   am
    20    91    90    1
    21    91    92    1
    22   107   105   am
    23    93    92    2
    24    90    88   am
    25    92    99   am
    26    64    65    1
    27    49    46    1
    28    48    47    2
    29    47    46    1
    30   105   106    2
    31   105   104    1
    32    88    89    2
    33    88    87    1
    34    84    85   ar
    35    84    82   ar
    36    46    45    1
    37    99   100    1
    38    44    43   ar
    39    44    42   ar
    40   104   103    1
    41    87    86    1
    42    65    66    1
    43    65    68    1
    44    66    67    2
    45    32    31    1
    46    43    41   ar
    47    85    83   ar
    48    71    69   am
    49    82    79   ar
    50   100   103    1
    51   100   101    1
    52    72    73    1
    53    42    40   ar
    54    14    15    1
    55    17    16    2
    56    31    33    1
    57    31    30    1
    58    16    15    1
    59    16    18   am
    60    68    69    1
    61    69    70    2
    62    19    18    1
    63    19    20    1
    64    41    39   ar
    65    83    81   ar
    66    79    81   ar
    67    79    77   ar
    68    22    20   am
    69    22    23    1
    70   101   102    2
    71    73    76    1
    72    73    74    1
    73    40    39   ar
    74    81    80   ar
    75    30    27    1
    76    76    77    1
    77    20    21    2
    78    39    38    1
    79    23    24    1
    80    77    78   ar
    81    13    11   ar
    82    26    24   am
    83    26    27    1
    84    12    11   ar
    85    24    25    2
    86    74    75    2
    87    27    28    1
    88    11    10    1
    89    80    78   ar
    90     5     2    1
    91    38    35    1
    92    36    37    2
    93    36    35    1
    94    28    29    2
    95    35    34    1
    96    10     7    1
    97     2     1    1
    98     2     3    1
    99     3     4    2
   100     3     6   am
   101     7     6    1
   102     7     8    1
   103     8     9    2
