@<TRIPOS>MOLECULE
tmp/1q8qB00.pdb
 107 103 0 0 0
SMALL
GASTEIGER

@<TRIPOS>ATOM
      1  N         -5.9930  -15.7030   -7.6470 N.3    84  ALA84      -0.1231
      2  CA        -4.7060  -15.0220   -7.7770 C.3    84  ALA84       0.1694
      3  C         -4.8660  -13.5490   -7.4020 C.2    84  ALA84       0.2592
      4  O         -5.9920  -13.0470   -7.3780 O.2    84  ALA84      -0.2718
      5  CB        -4.2050  -15.1460   -9.2140 C.3    84  ALA84       0.0304
      6  N         -3.7630  -12.8340   -7.1550 N.am   85  ASP85      -0.1974
      7  CA        -2.3920  -13.3580   -7.2220 C.3    85  ASP85       0.1709
      8  C         -1.6760  -13.4970   -5.8840 C.2    85  ASP85       0.2293
      9  O         -0.7140  -14.2550   -5.7680 O.2    85  ASP85      -0.2864
     10  CB        -1.5560  -12.4700   -8.1440 C.3    85  ASP85       0.1436
     11  CG        -1.6860  -12.8630   -9.6000 C.2    85  ASP85       0.3671
     12  OD1       -0.9830  -13.8080  -10.0170 O.co2  85  ASP85      -0.2456
     13  OD2       -2.5060  -12.2530  -10.3120 O.co2  85  ASP85      -0.2456
     14  N          1.1070   -5.2870  -12.0790 N.3   103  GLY103     -0.1210
     15  CA        -0.0380   -6.1000  -11.7140 C.3   103  GLY103      0.1956
     16  C          0.2160   -7.5960  -11.7310 C.2   103  GLY103      0.2612
     17  O          1.3410   -8.0480  -11.9510 O.2   103  GLY103     -0.2717
     18  N         -0.8420   -8.3660  -11.4940 N.am  104  GLY104     -0.1942
     19  CA        -0.7310   -9.8170  -11.4970 C.3   104  GLY104      0.2014
     20  C          0.3300  -10.3940  -10.5780 C.2   104  GLY104      0.2639
     21  O          0.4020  -10.0520   -9.3990 O.2   104  GLY104     -0.2714
     22  N          1.1590  -11.2740  -11.1340 N.am  105  GLY105     -0.1939
     23  CA         2.2090  -11.9220  -10.3680 C.3   105  GLY105      0.2014
     24  C          3.2830  -11.0160   -9.7910 C.2   105  GLY105      0.2638
     25  O          4.0840  -11.4660   -8.9680 O.2   105  GLY105     -0.2714
     26  N          3.3250   -9.7550  -10.2170 N.am  106  LEU106     -0.1977
     27  CA         4.3190   -8.8340   -9.6840 C.3   106  LEU106      0.1596
     28  C          3.8230   -8.1930   -8.3870 C.2   106  LEU106      0.2287
     29  O          4.5080   -7.3770   -7.7780 O.2   106  LEU106     -0.2864
     30  CB         4.7000   -7.7790  -10.7340 C.3   106  LEU106      0.0297
     31  CG         5.3670   -8.3900  -11.9850 C.3   106  LEU106      0.0022
     32  CD1        5.8990   -7.2750  -12.8710 C.3   106  LEU106      0.0001
     33  CD2        6.5160   -9.3200  -11.5800 C.3   106  LEU106      0.0001
     34  N         -0.7310  -18.0240   -6.7730 N.3   131  PHE131     -0.1241
     35  CA        -0.7180  -18.3640   -8.2000 C.3   131  PHE131      0.1605
     36  C          0.7200  -18.6350   -8.6300 C.2   131  PHE131      0.2264
     37  O          1.5890  -17.7690   -8.5050 O.2   131  PHE131     -0.2867
     38  CB        -1.2980  -17.2120   -9.0190 C.3   131  PHE131      0.0534
     39  CG        -1.5680  -17.5660  -10.4530 C.ar  131  PHE131     -0.0203
     40  CD1       -2.6840  -18.3220  -10.7980 C.ar  131  PHE131     -0.0042
     41  CD2       -0.6890  -17.1680  -11.4590 C.ar  131  PHE131     -0.0042
     42  CE1       -2.9240  -18.6770  -12.1270 C.ar  131  PHE131     -0.0003
     43  CE2       -0.9210  -17.5200  -12.7910 C.ar  131  PHE131     -0.0003
     44  CZ        -2.0440  -18.2760  -13.1240 C.ar  131  PHE131     -0.0000
     45  N          1.5390  -20.6440  -11.8560 N.3   133  ALA133     -0.1245
     46  CA         1.6190  -21.2600  -13.1770 C.3   133  ALA133      0.1562
     47  C          3.0210  -21.0440  -13.7330 C.2   133  ALA133      0.2260
     48  O          3.4670  -19.9080  -13.9060 O.2   133  ALA133     -0.2867
     49  CB         0.5820  -20.6500  -14.1050 C.3   133  ALA133      0.0290
     50  N          4.2120  -21.1370  -16.5860 N.3   135  ASP135     -0.1225
     51  CA         4.3330  -20.4660  -17.8810 C.3   135  ASP135      0.1805
     52  C          4.3100  -18.9440  -17.7630 C.2   135  ASP135      0.2598
     53  O          4.8170  -18.2440  -18.6410 O.2   135  ASP135     -0.2718
     54  CB         3.2170  -20.9150  -18.8300 C.3   135  ASP135      0.1424
     55  CG         1.8330  -20.6860  -18.2520 C.2   135  ASP135      0.3668
     56  OD1        1.5030  -21.3370  -17.2390 O.co2 135  ASP135     -0.2456
     57  OD2        1.0800  -19.8510  -18.8030 O.co2 135  ASP135     -0.2456
     58  N          3.7060  -18.4300  -16.6940 N.am  136  SER136     -0.1938
     59  CA         3.6500  -16.9850  -16.4950 C.3   136  SER136      0.2055
     60  C          4.5180  -16.5690  -15.3070 C.2   136  SER136      0.2643
     61  O          5.3580  -15.6770  -15.4360 O.2   136  SER136     -0.2714
     62  CB         2.1980  -16.5090  -16.3120 C.3   136  SER136      0.2130
     63  OG         1.5300  -17.2070  -15.2770 O.3   136  SER136     -0.2179
     64  N          4.3250  -17.2080  -14.1570 N.am  137  ASN137     -0.1971
     65  CA         5.1430  -16.8870  -12.9870 C.3   137  ASN137      0.1688
     66  C          6.3270  -17.8530  -12.9630 C.2   137  ASN137      0.2292
     67  O          6.4540  -18.6940  -12.0690 O.2   137  ASN137     -0.2864
     68  CB         4.3290  -17.0030  -11.6870 C.3   137  ASN137      0.1181
     69  CG         3.2010  -15.9750  -11.5990 C.2   137  ASN137      0.2629
     70  OD1        2.7610  -15.6190  -10.5040 O.2   137  ASN137     -0.2716
     71  ND2        2.7170  -15.5120  -12.7480 N.am  137  ASN137     -0.0877
     72  N          9.3070  -17.5390  -12.1350 N.3   139  TRP139     -0.1241
     73  CA        10.1880  -17.4080  -10.9790 C.3   139  TRP139      0.1605
     74  C          9.6930  -18.1510   -9.7360 C.2   139  TRP139      0.2264
     75  O         10.4340  -18.3090   -8.7660 O.2   139  TRP139     -0.2867
     76  CB        10.3480  -15.9250  -10.6580 C.3   139  TRP139      0.0550
     77  CG         9.0260  -15.2690  -10.4410 C.ar  139  TRP139      0.0003
     78  CD1        8.2620  -15.3120   -9.3110 C.ar  139  TRP139      0.0946
     79  CD2        8.2510  -14.5770  -11.4220 C.ar  139  TRP139      0.0152
     80  NE1        7.0570  -14.6930   -9.5280 N.ar  139  TRP139     -0.2442
     81  CE2        7.0230  -14.2320  -10.8180 C.ar  139  TRP139      0.0810
     82  CE3        8.4730  -14.2170  -12.7570 C.ar  139  TRP139      0.0012
     83  CZ2        6.0180  -13.5420  -11.5010 C.ar  139  TRP139      0.0191
     84  CZ3        7.4740  -13.5310  -13.4380 C.ar  139  TRP139      0.0001
     85  CH2        6.2610  -13.2020  -12.8060 C.ar  139  TRP139      0.0015
     86  N         -4.6010  -10.5520  -11.5890 N.3   219  GLY219     -0.1210
     87  CA        -4.4500  -10.3300  -13.0130 C.3   219  GLY219      0.1956
     88  C         -5.6200  -10.9810  -13.7210 C.2   219  GLY219      0.2612
     89  O         -6.7630  -10.5630  -13.5300 O.2   219  GLY219     -0.2717
     90  N         -5.3360  -12.0020  -14.5300 N.am  220  GLU220     -0.1965
     91  CA        -6.3710  -12.7400  -15.2600 C.3   220  GLU220      0.1733
     92  C         -7.2690  -13.4750  -14.2610 C.2   220  GLU220      0.2616
     93  O         -8.4870  -13.4910  -14.4110 O.2   220  GLU220     -0.2715
     94  CB        -5.7240  -13.7570  -16.2090 C.3   220  GLU220      0.0429
     95  CG        -4.8940  -13.1410  -17.3280 C.3   220  GLU220      0.1163
     96  CD        -5.7080  -12.8250  -18.5690 C.2   220  GLU220      0.3649
     97  OE1       -6.1240  -13.7840  -19.2610 O.co2 220  GLU220     -0.2457
     98  OE2       -5.9380  -11.6270  -18.8490 O.co2 220  GLU220     -0.2457
     99  N         -6.6490  -14.1040  -13.2650 N.am  221  GLN221     -0.1977
    100  CA        -7.3700  -14.8170  -12.2120 C.3   221  GLN221      0.1601
    101  C         -7.5150  -13.8460  -11.0400 C.2   221  GLN221      0.2287
    102  O         -6.7050  -12.9290  -10.8800 O.2   221  GLN221     -0.2864
    103  CB        -6.5980  -16.0600  -11.7680 C.3   221  GLN221      0.0394
    104  CG        -6.7140  -17.2760  -12.6850 C.3   221  GLN221      0.0908
    105  CD        -6.4170  -16.9770  -14.1390 C.2   221  GLN221      0.2608
    106  OE1       -7.3030  -16.5930  -14.9070 O.2   221  GLN221     -0.2717
    107  NE2       -5.1600  -17.1310  -14.5210 N.am  221  GLN221     -0.0878
@<TRIPOS>BOND
     1    97    96   ar
     2    98    96   ar
     3    54    55    1
     4    54    51    1
     5    57    55   ar
     6    53    52    2
     7    96    95    1
     8    55    56   ar
     9    51    52    1
    10    51    50    1
    11    52    58   am
    12    95    94    1
    13    58    59    1
    14    59    62    1
    15    59    60    1
    16    62    63    1
    17    94    91    1
    18    61    60    2
    19    60    64   am
    20    91    90    1
    21    91    92    1
    22   106   105    2
    23    90    88   am
    24   107   105   am
    25    93    92    2
    26    92    99   am
    27    64    65    1
    28   105   104    1
    29    49    46    1
    30    48    47    2
    31    47    46    1
    32    88    89    2
    33    88    87    1
    34    84    85   ar
    35    84    82   ar
    36    99   100    1
    37    46    45    1
    38    44    43   ar
    39    44    42   ar
    40    87    86    1
    41    65    66    1
    42    65    68    1
    43    66    67    2
    44    32    31    1
    45    85    83   ar
    46    43    41   ar
    47    82    79   ar
    48    71    69   am
    49   104   103    1
    50   100   103    1
    51   100   101    1
    52    72    73    1
    53    42    40   ar
    54    14    15    1
    55    31    33    1
    56    31    30    1
    57    17    16    2
    58    16    15    1
    59    16    18   am
    60    68    69    1
    61    69    70    2
    62    83    81   ar
    63    19    18    1
    64    19    20    1
    65    41    39   ar
    66    79    81   ar
    67    79    77   ar
    68    22    20   am
    69    22    23    1
    70   101   102    2
    71    73    76    1
    72    73    74    1
    73    81    80   ar
    74    40    39   ar
    75    30    27    1
    76    76    77    1
    77    20    21    2
    78    39    38    1
    79    77    78   ar
    80    23    24    1
    81    13    11   ar
    82    26    24   am
    83    26    27    1
    84    12    11   ar
    85    24    25    2
    86    74    75    2
    87    27    28    1
    88    11    10    1
    89    80    78   ar
    90     5     2    1
    91    38    35    1
    92    36    37    2
    93    36    35    1
    94    28    29    2
    95    35    34    1
    96    10     7    1
    97     2     1    1
    98     2     3    1
    99     3     4    2
   100     3     6   am
   101     7     6    1
   102     7     8    1
   103     8     9    2
