@<TRIPOS>MOLECULE
tmp/1q8sB00.pdb
 107 103 0 0 0
SMALL
GASTEIGER

@<TRIPOS>ATOM
      1  N         -6.1150  -15.6390   -7.6420 N.3    84  ALA84      -0.1231
      2  CA        -4.8370  -14.9660   -7.8210 C.3    84  ALA84       0.1694
      3  C         -4.9900  -13.4960   -7.4350 C.2    84  ALA84       0.2592
      4  O         -6.1160  -12.9980   -7.3500 O.2    84  ALA84      -0.2718
      5  CB        -4.3960  -15.0920   -9.2770 C.3    84  ALA84       0.0304
      6  N         -3.8810  -12.7890   -7.2060 N.am   85  ASP85      -0.1974
      7  CA        -2.5240  -13.3240   -7.3010 C.3    85  ASP85       0.1709
      8  C         -1.8110  -13.4680   -5.9630 C.2    85  ASP85       0.2293
      9  O         -0.8580  -14.2390   -5.8420 O.2    85  ASP85      -0.2864
     10  CB        -1.6970  -12.4430   -8.2320 C.3    85  ASP85       0.1436
     11  CG        -1.8400  -12.8500   -9.6770 C.2    85  ASP85       0.3671
     12  OD1       -1.1490  -13.8040  -10.0760 O.co2  85  ASP85      -0.2456
     13  OD2       -2.6610  -12.2500  -10.3970 O.co2  85  ASP85      -0.2456
     14  N          0.8370   -5.2530  -12.1380 N.3   103  GLY103     -0.1210
     15  CA        -0.3250   -6.0490  -11.7840 C.3   103  GLY103      0.1956
     16  C         -0.0450   -7.5400  -11.7720 C.2   103  GLY103      0.2612
     17  O          1.1020   -7.9710  -11.9240 O.2   103  GLY103     -0.2717
     18  N         -1.1000   -8.3270  -11.5840 N.am  104  GLY104     -0.1942
     19  CA        -0.9670   -9.7730  -11.5630 C.3   104  GLY104      0.2014
     20  C          0.1110  -10.3490  -10.6620 C.2   104  GLY104      0.2639
     21  O          0.2100  -10.0080   -9.4800 O.2   104  GLY104     -0.2714
     22  N          0.9220  -11.2320  -11.2390 N.am  105  GLY105     -0.1939
     23  CA         1.9880  -11.8930  -10.5030 C.3   105  GLY105      0.2014
     24  C          3.0800  -11.0190   -9.9130 C.2   105  GLY105      0.2638
     25  O          3.8970  -11.5080   -9.1320 O.2   105  GLY105     -0.2714
     26  N          3.1150   -9.7420  -10.2850 N.am  106  LEU106     -0.1977
     27  CA         4.1190   -8.8310   -9.7510 C.3   106  LEU106      0.1596
     28  C          3.6270   -8.1920   -8.4480 C.2   106  LEU106      0.2287
     29  O          4.3270   -7.3920   -7.8310 O.2   106  LEU106     -0.2864
     30  CB         4.4820   -7.7560  -10.7810 C.3   106  LEU106      0.0297
     31  CG         5.1230   -8.2860  -12.0750 C.3   106  LEU106      0.0022
     32  CD1        5.5510   -7.1080  -12.9480 C.3   106  LEU106      0.0001
     33  CD2        6.3370   -9.1620  -11.7450 C.3   106  LEU106      0.0001
     34  N         -0.8650  -17.9620   -6.8680 N.3   131  PHE131     -0.1241
     35  CA        -0.8520  -18.2940   -8.2930 C.3   131  PHE131      0.1605
     36  C          0.5770  -18.5630   -8.7460 C.2   131  PHE131      0.2264
     37  O          1.4400  -17.6960   -8.6420 O.2   131  PHE131     -0.2867
     38  CB        -1.4440  -17.1470   -9.1110 C.3   131  PHE131      0.0534
     39  CG        -1.7230  -17.5060  -10.5470 C.ar  131  PHE131     -0.0203
     40  CD1       -2.8610  -18.2350  -10.8870 C.ar  131  PHE131     -0.0042
     41  CD2       -0.8320  -17.1460  -11.5550 C.ar  131  PHE131     -0.0042
     42  CE1       -3.1110  -18.6000  -12.2160 C.ar  131  PHE131     -0.0003
     43  CE2       -1.0720  -17.5070  -12.8880 C.ar  131  PHE131     -0.0003
     44  CZ        -2.2170  -18.2360  -13.2150 C.ar  131  PHE131     -0.0000
     45  N          1.3050  -20.5520  -11.9690 N.3   133  ALA133     -0.1245
     46  CA         1.3500  -21.1160  -13.3180 C.3   133  ALA133      0.1562
     47  C          2.7510  -20.9250  -13.8900 C.2   133  ALA133      0.2260
     48  O          3.2090  -19.8000  -14.0890 O.2   133  ALA133     -0.2867
     49  CB         0.3190  -20.4350  -14.2100 C.3   133  ALA133      0.0290
     50  N          3.9260  -21.0280  -16.7250 N.3   135  ASP135     -0.1225
     51  CA         4.0610  -20.3670  -18.0210 C.3   135  ASP135      0.1805
     52  C          4.0990  -18.8470  -17.8990 C.2   135  ASP135      0.2598
     53  O          4.6470  -18.1670  -18.7650 O.2   135  ASP135     -0.2718
     54  CB         2.9280  -20.7870  -18.9690 C.3   135  ASP135      0.1424
     55  CG         1.5580  -20.3670  -18.4710 C.2   135  ASP135      0.3668
     56  OD1        1.1740  -20.7700  -17.3500 O.co2 135  ASP135     -0.2456
     57  OD2        0.8630  -19.6360  -19.2100 O.co2 135  ASP135     -0.2456
     58  N          3.5200  -18.3130  -16.8260 N.am  136  SER136     -0.1938
     59  CA         3.5160  -16.8690  -16.6140 C.3   136  SER136      0.2055
     60  C          4.3920  -16.4660  -15.4270 C.2   136  SER136      0.2643
     61  O          5.2600  -15.6080  -15.5600 O.2   136  SER136     -0.2714
     62  CB         2.0820  -16.3570  -16.4190 C.3   136  SER136      0.2130
     63  OG         1.4200  -17.0330  -15.3650 O.3   136  SER136     -0.2179
     64  N          4.1630  -17.0750  -14.2680 N.am  137  ASN137     -0.1971
     65  CA         4.9660  -16.7720  -13.0830 C.3   137  ASN137      0.1688
     66  C          6.1460  -17.7430  -13.0740 C.2   137  ASN137      0.2292
     67  O          6.2760  -18.5880  -12.1880 O.2   137  ASN137     -0.2864
     68  CB         4.1350  -16.9340  -11.8000 C.3   137  ASN137      0.1181
     69  CG         2.9870  -15.9320  -11.7000 C.2   137  ASN137      0.2629
     70  OD1        2.6020  -15.5330  -10.5990 O.2   137  ASN137     -0.2716
     71  ND2        2.4220  -15.5410  -12.8410 N.am  137  ASN137     -0.0877
     72  N          9.1140  -17.4650  -12.2680 N.3   139  TRP139     -0.1241
     73  CA         9.9900  -17.3490  -11.1090 C.3   139  TRP139      0.1605
     74  C          9.5040  -18.1200   -9.8810 C.2   139  TRP139      0.2264
     75  O         10.2660  -18.3410   -8.9440 O.2   139  TRP139     -0.2867
     76  CB        10.1480  -15.8680  -10.7660 C.3   139  TRP139      0.0550
     77  CG         8.8290  -15.2060  -10.5050 C.ar  139  TRP139      0.0003
     78  CD1        8.0770  -15.2910   -9.3640 C.ar  139  TRP139      0.0946
     79  CD2        8.0490  -14.4560  -11.4410 C.ar  139  TRP139      0.0152
     80  NE1        6.8820  -14.6430   -9.5370 N.ar  139  TRP139     -0.2442
     81  CE2        6.8360  -14.1210  -10.8020 C.ar  139  TRP139      0.0810
     82  CE3        8.2570  -14.0370  -12.7620 C.ar  139  TRP139      0.0012
     83  CZ2        5.8310  -13.3830  -11.4380 C.ar  139  TRP139      0.0191
     84  CZ3        7.2600  -13.3030  -13.3960 C.ar  139  TRP139      0.0001
     85  CH2        6.0590  -12.9840  -12.7310 C.ar  139  TRP139      0.0015
     86  N         -4.6530  -10.5870  -11.6090 N.3   219  GLY219     -0.1210
     87  CA        -4.5100  -10.3970  -13.0410 C.3   219  GLY219      0.1956
     88  C         -5.7130  -11.0170  -13.7280 C.2   219  GLY219      0.2612
     89  O         -6.8380  -10.5580  -13.5370 O.2   219  GLY219     -0.2717
     90  N         -5.4820  -12.0640  -14.5160 N.am  220  GLU220     -0.1965
     91  CA        -6.5560  -12.7630  -15.2210 C.3   220  GLU220      0.1733
     92  C         -7.4430  -13.4910  -14.2130 C.2   220  GLU220      0.2616
     93  O         -8.6670  -13.4880  -14.3290 O.2   220  GLU220     -0.2715
     94  CB        -5.9630  -13.7680  -16.2160 C.3   220  GLU220      0.0429
     95  CG        -5.2310  -13.1320  -17.3900 C.3   220  GLU220      0.1163
     96  CD        -6.1790  -12.6070  -18.4570 C.2   220  GLU220      0.3649
     97  OE1       -6.8300  -13.4390  -19.1300 O.co2 220  GLU220     -0.2457
     98  OE2       -6.2830  -11.3720  -18.6200 O.co2 220  GLU220     -0.2457
     99  N         -6.8100  -14.1380  -13.2380 N.am  221  GLN221     -0.1977
    100  CA        -7.5320  -14.8370  -12.1830 C.3   221  GLN221      0.1601
    101  C         -7.6710  -13.8310  -11.0450 C.2   221  GLN221      0.2287
    102  O         -6.9110  -12.8600  -10.9690 O.2   221  GLN221     -0.2864
    103  CB        -6.7560  -16.0640  -11.7100 C.3   221  GLN221      0.0394
    104  CG        -6.8430  -17.2850  -12.6160 C.3   221  GLN221      0.0908
    105  CD        -6.5550  -16.9770  -14.0670 C.2   221  GLN221      0.2608
    106  OE1       -7.4160  -16.4710  -14.7910 O.2   221  GLN221     -0.2717
    107  NE2       -5.3320  -17.2610  -14.5000 N.am  221  GLN221     -0.0878
@<TRIPOS>BOND
     1    57    55   ar
     2    97    96   ar
     3    54    55    1
     4    54    51    1
     5    53    52    2
     6    98    96   ar
     7    55    56   ar
     8    96    95    1
     9    51    52    1
    10    51    50    1
    11    52    58   am
    12    95    94    1
    13    58    59    1
    14    59    62    1
    15    59    60    1
    16    62    63    1
    17    94    91    1
    18    61    60    2
    19    60    64   am
    20    91    90    1
    21    91    92    1
    22   106   105    2
    23    90    88   am
    24   107   105   am
    25    93    92    2
    26    64    65    1
    27    92    99   am
    28    49    46    1
    29    48    47    2
    30   105   104    1
    31    47    46    1
    32    88    89    2
    33    88    87    1
    34    84    82   ar
    35    84    85   ar
    36    46    45    1
    37    99   100    1
    38    44    43   ar
    39    44    42   ar
    40    65    66    1
    41    65    68    1
    42    66    67    2
    43    87    86    1
    44    32    31    1
    45    43    41   ar
    46    71    69   am
    47    82    79   ar
    48    85    83   ar
    49   104   103    1
    50    72    73    1
    51    42    40   ar
    52   100   103    1
    53   100   101    1
    54    14    15    1
    55    31    33    1
    56    31    30    1
    57    17    16    2
    58    68    69    1
    59    15    16    1
    60    16    18   am
    61    69    70    2
    62    18    19    1
    63    19    20    1
    64    41    39   ar
    65    79    81   ar
    66    79    77   ar
    67    83    81   ar
    68    22    20   am
    69    22    23    1
    70    73    76    1
    71    73    74    1
    72   101   102    2
    73    40    39   ar
    74    81    80   ar
    75    30    27    1
    76    76    77    1
    77    20    21    2
    78    39    38    1
    79    77    78   ar
    80    23    24    1
    81    13    11   ar
    82    26    24   am
    83    26    27    1
    84    12    11   ar
    85    24    25    2
    86    74    75    2
    87    27    28    1
    88    11    10    1
    89    80    78   ar
    90     5     2    1
    91    38    35    1
    92    36    37    2
    93    36    35    1
    94    28    29    2
    95    35    34    1
    96    10     7    1
    97     2     1    1
    98     2     3    1
    99     3     4    2
   100     3     6   am
   101     7     6    1
   102     7     8    1
   103     8     9    2
