@<TRIPOS>MOLECULE
tmp/1q90D06.pdb
 160 159 0 0 0
SMALL
GASTEIGER

@<TRIPOS>ATOM
      1  N         34.7630  147.0160  113.2600 N.3    71  GLU71      -0.1245
      2  CA        34.8080  146.5340  114.6230 C.3    71  GLU71       0.1567
      3  C         35.5000  147.6310  115.4120 C.2    71  GLU71       0.2260
      4  O         36.7290  147.7400  115.4240 O.2    71  GLU71      -0.2867
      5  CB        35.4370  145.1420  114.6780 C.3    71  GLU71       0.0388
      6  CG        34.6920  144.0920  113.8730 C.3    71  GLU71       0.1160
      7  CD        35.3440  142.7250  113.9510 C.2    71  GLU71       0.3649
      8  OE1       36.3800  142.6010  114.6350 O.co2  71  GLU71      -0.2457
      9  OE2       34.8190  141.7800  113.3270 O.co2  71  GLU71      -0.2457
     10  N         38.7840  148.5270  127.5780 N.3    76  TRP76      -0.1227
     11  CA        38.1600  147.4940  128.3940 C.3    76  TRP76       0.1737
     12  C         37.2630  148.0050  129.5160 C.2    76  TRP76       0.2595
     13  O         36.1440  147.5180  129.6790 O.2    76  TRP76      -0.2718
     14  CB        39.2130  146.5480  128.9840 C.3    76  TRP76       0.0564
     15  CG        40.1680  147.1880  129.9690 C.ar   76  TRP76       0.0003
     16  CD1       41.3310  147.8540  129.6820 C.ar   76  TRP76       0.0946
     17  CD2       40.0220  147.2340  131.3890 C.ar   76  TRP76       0.0152
     18  NE1       41.9140  148.3090  130.8380 N.ar   76  TRP76      -0.2442
     19  CE2       41.1300  147.9420  131.9010 C.ar   76  TRP76       0.0810
     20  CE3       39.0600  146.7460  132.2800 C.ar   76  TRP76       0.0012
     21  CZ2       41.3020  148.1750  133.2660 C.ar   76  TRP76       0.0191
     22  CZ3       39.2280  146.9750  133.6320 C.ar   76  TRP76       0.0001
     23  CH2       40.3420  147.6850  134.1150 C.ar   76  TRP76       0.0015
     24  N         37.7350  148.9850  130.2810 N.am   77  TYR77      -0.1976
     25  CA        36.9480  149.5050  131.3970 C.3    77  TYR77       0.1639
     26  C         35.6150  150.1700  131.0380 C.2    77  TYR77       0.2290
     27  O         34.7970  150.4490  131.9170 O.2    77  TYR77      -0.2864
     28  CB        37.8090  150.4410  132.2450 C.3    77  TYR77       0.0560
     29  CG        38.6000  151.4460  131.4550 C.ar   77  TYR77      -0.0198
     30  CD1       38.0290  152.6510  131.0520 C.ar   77  TYR77      -0.0009
     31  CD2       39.9280  151.1980  131.1190 C.ar   77  TYR77      -0.0009
     32  CE1       38.7680  153.5960  130.3290 C.ar   77  TYR77       0.0417
     33  CE2       40.6760  152.1300  130.3990 C.ar   77  TYR77       0.0417
     34  CZ        40.0910  153.3300  130.0060 C.ar   77  TYR77       0.1957
     35  OH        40.8270  154.2570  129.2970 O.3    77  TYR77      -0.2866
     36  N         33.7370  148.7550  128.5370 N.3    79  TYR79      -0.1228
     37  CA        32.9700  147.6320  128.0160 C.3    79  TYR79       0.1721
     38  C         31.5580  147.4830  128.5750 C.2    79  TYR79       0.2437
     39  O         30.6160  147.2950  127.8120 O.2    79  TYR79      -0.2733
     40  CB        33.7540  146.3310  128.2150 C.3    79  TYR79       0.0547
     41  CG        34.8440  146.1100  127.1820 C.ar   79  TYR79      -0.0200
     42  CD1       35.2550  147.1440  126.3340 C.ar   79  TYR79      -0.0009
     43  CD2       35.4720  144.8670  127.0590 C.ar   79  TYR79      -0.0009
     44  CE1       36.2590  146.9470  125.3950 C.ar   79  TYR79       0.0417
     45  CE2       36.4810  144.6590  126.1240 C.ar   79  TYR79       0.0417
     46  CZ        36.8700  145.7020  125.2990 C.ar   79  TYR79       0.1957
     47  OH        37.8910  145.5100  124.3990 O.3    79  TYR79      -0.2866
     48  N         31.3920  147.5630  129.9080 N.am   80  PRO80      -0.2729
     49  CA        30.0710  147.4330  130.5400 C.3    80  PRO80       0.1401
     50  C         29.0790  148.5010  130.0860 C.2    80  PRO80       0.2269
     51  O         27.9600  148.1960  129.6600 O.2    80  PRO80      -0.2865
     52  CB        30.3910  147.5500  132.0260 C.3    80  PRO80       0.0296
     53  CG        31.7660  146.9900  132.1140 C.3    80  PRO80       0.0237
     54  CD        32.4450  147.6300  130.9350 C.3    80  PRO80       0.0939
     55  N         31.5210  140.3320  156.4890 N.3   121  TYR121     -0.1241
     56  CA        30.6820  139.3190  157.1180 C.3   121  TYR121      0.1605
     57  C         29.6950  139.8960  158.1130 C.2   121  TYR121      0.2264
     58  O         28.8080  139.1960  158.5850 O.2   121  TYR121     -0.2867
     59  CB        31.5410  138.2540  157.7940 C.3   121  TYR121      0.0534
     60  CG        32.3310  137.4580  156.7930 C.ar  121  TYR121     -0.0201
     61  CD1       33.7120  137.3500  156.9000 C.ar  121  TYR121     -0.0009
     62  CD2       31.7040  136.8710  155.6910 C.ar  121  TYR121     -0.0009
     63  CE1       34.4540  136.6900  155.9340 C.ar  121  TYR121      0.0417
     64  CE2       32.4410  136.2040  154.7180 C.ar  121  TYR121      0.0417
     65  CZ        33.8200  136.1230  154.8480 C.ar  121  TYR121      0.1957
     66  OH        34.5800  135.4930  153.8940 O.3   121  TYR121     -0.2866
     67  N         27.5620  142.9480  151.0630 N.3   127  THR127     -0.1218
     68  CA        28.3340  141.8920  150.4340 C.3   127  THR127      0.1862
     69  C         27.6150  141.3640  149.1980 C.2   127  THR127      0.2287
     70  O         28.2110  141.2630  148.1160 O.2   127  THR127     -0.2866
     71  CB        28.5760  140.7370  151.3950 C.3   127  THR127      0.1770
     72  OG1       29.3320  141.2070  152.5190 O.3   127  THR127     -0.2211
     73  CG2       29.3440  139.6350  150.7000 C.3   127  THR127      0.0375
     74  N         27.5850  143.8790  146.3800 N.3   130  PHE130     -0.1227
     75  CA        28.9110  144.0120  145.7850 C.3   130  PHE130      0.1736
     76  C         29.1310  142.8490  144.8480 C.2   130  PHE130      0.2595
     77  O         29.3630  143.0490  143.6550 O.2   130  PHE130     -0.2718
     78  CB        30.0160  144.0060  146.8410 C.3   130  PHE130      0.0547
     79  CG        31.4060  144.0280  146.2560 C.ar  130  PHE130     -0.0202
     80  CD1       31.9020  145.1710  145.6470 C.ar  130  PHE130     -0.0042
     81  CD2       32.2060  142.8920  146.2820 C.ar  130  PHE130     -0.0042
     82  CE1       33.1730  145.1820  145.0720 C.ar  130  PHE130     -0.0003
     83  CE2       33.4810  142.8950  145.7070 C.ar  130  PHE130     -0.0003
     84  CZ        33.9620  144.0400  145.1030 C.ar  130  PHE130     -0.0000
     85  N         29.0640  141.6340  145.3960 N.am  131  LEU131     -0.1980
     86  CA        29.2400  140.4220  144.5980 C.3   131  LEU131      0.1596
     87  C         28.3060  140.5140  143.3990 C.2   131  LEU131      0.2287
     88  O         28.7350  140.4450  142.2410 O.2   131  LEU131     -0.2864
     89  CB        28.9030  139.1830  145.4290 C.3   131  LEU131      0.0297
     90  CG        29.9030  138.8800  146.5520 C.3   131  LEU131      0.0022
     91  CD1       29.3780  137.7780  147.4570 C.3   131  LEU131      0.0001
     92  CD2       31.2480  138.4760  145.9390 C.3   131  LEU131      0.0001
     93  N         26.6470  143.0440  141.9900 N.3   133  GLY133     -0.1210
     94  CA        27.1160  144.0670  141.0770 C.3   133  GLY133      0.1956
     95  C         28.3560  143.7030  140.2860 C.2   133  GLY133      0.2613
     96  O         28.4950  144.1020  139.1290 O.2   133  GLY133     -0.2717
     97  N         29.2600  142.9470  140.9000 N.am  134  THR134     -0.1938
     98  CA        30.4790  142.5560  140.2160 C.3   134  THR134      0.2028
     99  C         30.1960  141.6280  139.0550 C.2   134  THR134      0.2642
    100  O         30.7670  141.7910  137.9760 O.2   134  THR134     -0.2714
    101  CB        31.4640  141.8960  141.1730 C.3   134  THR134      0.1808
    102  OG1       31.9690  142.8860  142.0760 O.3   134  THR134     -0.2208
    103  CG2       32.6250  141.2840  140.4100 C.3   134  THR134      0.0379
    104  N         29.3160  140.6550  139.2620 N.am  135  LEU135     -0.1977
    105  CA        28.9830  139.7370  138.1830 C.3   135  LEU135      0.1596
    106  C         28.3710  140.5440  137.0550 C.2   135  LEU135      0.2287
    107  O         28.7920  140.4440  135.9070 O.2   135  LEU135     -0.2864
    108  CB        27.9850  138.6830  138.6510 C.3   135  LEU135      0.0297
    109  CG        28.3990  137.9080  139.9010 C.3   135  LEU135      0.0022
    110  CD1       27.4070  136.7730  140.1090 C.3   135  LEU135      0.0001
    111  CD2       29.8310  137.3730  139.7610 C.3   135  LEU135      0.0001
    112  N         28.6120  143.6870  136.1920 N.3   137  ALA137     -0.1231
    113  CA        29.5750  144.5080  135.4590 C.3   137  ALA137      0.1694
    114  C         30.4830  143.6510  134.5830 C.2   137  ALA137      0.2591
    115  O         30.7140  143.9730  133.4170 O.2   137  ALA137     -0.2718
    116  CB        30.4090  145.3290  136.4300 C.3   137  ALA137      0.0304
    117  N         30.9990  142.5630  135.1480 N.am  138  VAL138     -0.1980
    118  CA        31.8700  141.6570  134.4040 C.3   138  VAL138      0.1595
    119  C         31.1130  141.0080  133.2360 C.2   138  VAL138      0.2287
    120  O         31.6320  140.9160  132.1230 O.2   138  VAL138     -0.2864
    121  CB        32.4420  140.5470  135.3340 C.3   138  VAL138      0.0276
    122  CG1       33.1730  139.4890  134.5220 C.3   138  VAL138      0.0022
    123  CG2       33.3940  141.1590  136.3310 C.3   138  VAL138      0.0022
    124  N         30.3970  143.4330  130.4580 N.3   141  GLY141     -0.1210
    125  CA        31.6610  143.6530  129.7850 C.3   141  GLY141      0.1956
    126  C         31.9860  142.5500  128.8000 C.2   141  GLY141      0.2611
    127  O         32.2750  142.8130  127.6320 O.2   141  GLY141     -0.2717
    128  N         31.9460  141.3080  129.2650 N.am  142  ILE142     -0.1979
    129  CA        32.2370  140.1930  128.3870 C.3   142  ILE142      0.1595
    130  C         31.2610  140.2350  127.2220 C.2   142  ILE142      0.2287
    131  O         31.6370  140.0190  126.0720 O.2   142  ILE142     -0.2864
    132  CB        32.1220  138.8510  129.1350 C.3   142  ILE142      0.0276
    133  CG1       33.2380  138.7680  130.1840 C.3   142  ILE142      0.0022
    134  CG2       32.2220  137.6900  128.1570 C.3   142  ILE142      0.0022
    135  CD1       33.2660  137.4840  131.0060 C.3   142  ILE142      0.0001
    136  N         31.6580  142.0600  123.7660 N.3   145  THR145     -0.1203
    137  CA        32.5380  141.4970  122.7430 C.3   145  THR145      0.1994
    138  C         31.7880  140.4910  121.8900 C.2   145  THR145      0.2618
    139  O         32.3550  139.9050  120.9630 O.2   145  THR145     -0.2717
    140  CB        33.7550  140.7810  123.3480 C.3   145  THR145      0.1784
    141  OG1       33.3050  139.7330  124.2100 O.3   145  THR145     -0.2211
    142  CG2       34.6230  141.7520  124.1260 C.3   145  THR145      0.0376
    143  N         30.5170  140.2840  122.2180 N.am  146  PHE146     -0.1962
    144  CA        29.6660  139.3610  121.4770 C.3   146  PHE146      0.1756
    145  C         28.7300  140.1580  120.5740 C.2   146  PHE146      0.2461
    146  O         28.6150  141.3800  120.7070 O.2   146  PHE146     -0.2730
    147  CB        28.8070  138.5200  122.4260 C.3   146  PHE146      0.0574
    148  CG        29.5670  137.4780  123.1830 C.ar  146  PHE146     -0.0200
    149  CD1       30.5510  137.8360  124.0980 C.ar  146  PHE146     -0.0042
    150  CD2       29.2720  136.1310  123.0090 C.ar  146  PHE146     -0.0042
    151  CE1       31.2320  136.8590  124.8350 C.ar  146  PHE146     -0.0003
    152  CE2       29.9420  135.1480  123.7370 C.ar  146  PHE146     -0.0003
    153  CZ        30.9230  135.5110  124.6520 C.ar  146  PHE146     -0.0000
    154  N         28.0560  139.4710  119.6340 N.am  147  PRO147     -0.2727
    155  CA        27.1170  140.1110  118.7070 C.3   147  PRO147      0.1402
    156  C         25.8850  140.5460  119.4930 C.2   147  PRO147      0.2269
    157  O         25.3200  139.7550  120.2520 O.2   147  PRO147     -0.2865
    158  CB        26.8010  138.9950  117.7210 C.3   147  PRO147      0.0296
    159  CG        28.0540  138.1580  117.7390 C.3   147  PRO147      0.0237
    160  CD        28.3420  138.0900  119.2070 C.3   147  PRO147      0.0939
@<TRIPOS>BOND
     1     1     2    1
     2     9     7   ar
     3     6     7    1
     4     6     5    1
     5     7     8   ar
     6     2     5    1
     7     2     3    1
     8     3     4    2
     9   158   159    1
    10   158   155    1
    11   159   160    1
    12   155   156    1
    13   155   154    1
    14   160   154    1
    15   156   157    2
    16   154   145   am
    17   145   146    2
    18   145   144    1
    19   139   138    2
    20   144   143    1
    21   144   147    1
    22   138   143   am
    23   138   137    1
    24   147   148    1
    25   137   140    1
    26   137   136    1
    27   150   148   ar
    28   150   152   ar
    29   148   149   ar
    30   140   142    1
    31   140   141    1
    32   152   153   ar
    33   149   151   ar
    34    47    46    1
    35   153   151   ar
    36    46    44   ar
    37    46    45   ar
    38    44    42   ar
    39   131   130    2
    40    45    43   ar
    41    42    41   ar
    42    43    41   ar
    43    41    40    1
    44   130   129    1
    45    10    11    1
    46   127   126    2
    47    39    38    2
    48    37    40    1
    49    37    36    1
    50    37    38    1
    51   134   132    1
    52   129   132    1
    53   129   128    1
    54    11    14    1
    55    11    12    1
    56    38    48   am
    57   126   128   am
    58   126   125    1
    59    14    15    1
    60   132   133    1
    61    35    34    1
    62    12    13    2
    63    12    24   am
    64    51    50    2
    65    16    15   ar
    66    16    18   ar
    67   125   124    1
    68    48    49    1
    69    48    54    1
    70    15    17   ar
    71    34    32   ar
    72    34    33   ar
    73    50    49    1
    74   133   135    1
    75    24    25    1
    76    32    30   ar
    77    33    31   ar
    78    49    52    1
    79    18    19   ar
    80    54    53    1
    81    26    25    1
    82    26    27    2
    83    30    29   ar
    84    31    29   ar
    85    17    19   ar
    86    17    20   ar
    87    25    28    1
    88    29    28    1
    89    19    21   ar
    90    52    53    1
    91   120   119    2
    92    20    22   ar
    93   119   118    1
    94    21    23   ar
    95   115   114    2
    96    22    23   ar
    97   118   117    1
    98   118   121    1
    99   122   121    1
   100   114   117   am
   101   114   113    1
   102   121   123    1
   103   113   112    1
   104   113   116    1
   105   107   106    2
   106   106   105    1
   107   100    99    2
   108   105   108    1
   109   105   104    1
   110   108   109    1
   111    99   104   am
   112    99    98    1
   113    96    95    2
   114   111   109    1
   115   109   110    1
   116    98    97    1
   117    98   101    1
   118    95    97   am
   119    95    94    1
   120   103   101    1
   121    94    93    1
   122   101   102    1
   123    88    87    2
   124    87    86    1
   125    77    76    2
   126    86    85    1
   127    86    89    1
   128    76    85   am
   129    76    75    1
   130    82    84   ar
   131    82    80   ar
   132    84    83   ar
   133    89    90    1
   134    80    79   ar
   135    83    81   ar
   136    75    74    1
   137    75    78    1
   138    92    90    1
   139    79    81   ar
   140    79    78    1
   141    90    91    1
   142    70    69    2
   143    69    68    1
   144    68    67    1
   145    68    71    1
   146    73    71    1
   147    71    72    1
   148    66    65    1
   149    64    65   ar
   150    64    62   ar
   151    65    63   ar
   152    62    60   ar
   153    63    61   ar
   154    55    56    1
   155    60    61   ar
   156    60    59    1
   157    56    59    1
   158    56    57    1
   159    57    58    2
