@<TRIPOS>MOLECULE
tmp/1q92A00.pdb
 183 180 0 0 0
SMALL
GASTEIGER

@<TRIPOS>ATOM
      1  N         21.6570   39.3860   34.8440 N.3     9  ASP9       -0.1239
      2  CA        20.5540   39.8560   34.0240 C.3     9  ASP9        0.1674
      3  C         19.6390   40.8070   34.7830 C.2     9  ASP9        0.2266
      4  O         19.5640   40.7380   35.9890 O.2     9  ASP9       -0.2867
      5  CB        19.8490   38.6150   33.4860 C.3     9  ASP9        0.1410
      6  CG        18.7070   38.8900   32.5620 C.2     9  ASP9        0.3668
      7  OD1       18.7880   39.8860   31.7790 O.co2   9  ASP9       -0.2456
      8  OD2       17.7200   38.0750   32.5250 O.co2   9  ASP9       -0.2456
      9  N         15.8430   41.8160   33.4720 N.3    11  ASP11      -0.1239
     10  CA        14.4560   41.3600   33.4470 C.3    11  ASP11       0.1674
     11  C         14.3920   39.8790   33.7960 C.2    11  ASP11       0.2266
     12  O         15.0800   39.0290   33.2090 O.2    11  ASP11      -0.2867
     13  CB        13.8190   41.6060   32.0850 C.3    11  ASP11       0.1410
     14  CG        13.8820   43.0120   31.7210 C.2    11  ASP11       0.3668
     15  OD1       13.1370   43.8250   32.3130 O.co2  11  ASP11      -0.2456
     16  OD2       14.7200   43.4140   30.8760 O.co2  11  ASP11      -0.2456
     17  N          9.6470   41.5720   35.4970 N.3    17  PHE17      -0.1227
     18  CA         9.0550   41.7290   34.1600 C.3    17  PHE17       0.1736
     19  C          7.7410   40.9850   34.0010 C.2    17  PHE17       0.2595
     20  O          6.7650   41.5810   33.5240 O.2    17  PHE17      -0.2718
     21  CB        10.0780   41.3250   33.1130 C.3    17  PHE17       0.0547
     22  CG         9.6200   41.5350   31.6980 C.ar   17  PHE17      -0.0202
     23  CD1        8.8350   40.5860   31.0640 C.ar   17  PHE17      -0.0042
     24  CD2        9.9550   42.6680   31.0030 C.ar   17  PHE17      -0.0042
     25  CE1        8.3940   40.7780   29.7680 C.ar   17  PHE17      -0.0003
     26  CE2        9.5130   42.8410   29.6880 C.ar   17  PHE17      -0.0003
     27  CZ         8.7380   41.9000   29.1040 C.ar   17  PHE17      -0.0000
     28  N          7.7010   39.7220   34.3810 N.am   18  GLU18      -0.1979
     29  CA         6.5130   38.8840   34.1260 C.3    18  GLU18       0.1602
     30  C          5.3060   39.3990   34.9210 C.2    18  GLU18       0.2287
     31  O          4.1770   39.5130   34.3920 O.2    18  GLU18      -0.2864
     32  CB         6.8130   37.4100   34.4610 C.3    18  GLU18       0.0415
     33  CG         7.8040   36.7500   33.5360 C.3    18  GLU18       0.1163
     34  CD         7.2310   36.2610   32.2010 C.2    18  GLU18       0.3649
     35  OE1        5.9670   36.1760   32.0210 O.co2  18  GLU18      -0.2457
     36  OE2        8.0910   35.9150   31.3310 O.co2  18  GLU18      -0.2457
     37  N         10.1330   31.3380   26.5660 N.3    43  PHE43      -0.1227
     38  CA        10.7300   32.5610   27.0070 C.3    43  PHE43       0.1736
     39  C          9.9230   33.7730   26.6250 C.2    43  PHE43       0.2595
     40  O          9.7140   34.6430   27.4470 O.2    43  PHE43      -0.2718
     41  CB        12.1300   32.6660   26.4510 C.3    43  PHE43       0.0547
     42  CG        12.8410   33.9190   26.8620 C.ar   43  PHE43      -0.0202
     43  CD1       13.2780   34.0930   28.1720 C.ar   43  PHE43      -0.0042
     44  CD2       13.0660   34.9410   25.9640 C.ar   43  PHE43      -0.0042
     45  CE1       13.9090   35.2280   28.5570 C.ar   43  PHE43      -0.0003
     46  CE2       13.6720   36.1000   26.3560 C.ar   43  PHE43      -0.0003
     47  CZ        14.1070   36.2510   27.6620 C.ar   43  PHE43      -0.0000
     48  N          9.5340   33.8620   25.3490 N.am   44  TRP44      -0.1962
     49  CA         8.9280   35.0840   24.8280 C.3    44  TRP44       0.1771
     50  C          7.4610   35.1880   25.1890 C.2    44  TRP44       0.2619
     51  O          6.5860   34.4110   24.6740 O.2    44  TRP44      -0.2715
     52  CB         9.0810   35.1610   23.3220 C.3    44  TRP44       0.0590
     53  CG        10.4930   35.2720   22.8850 C.ar   44  TRP44       0.0006
     54  CD1       11.2140   34.3320   22.2020 C.ar   44  TRP44       0.0946
     55  CD2       11.3880   36.4030   23.0580 C.ar   44  TRP44       0.0152
     56  NE1       12.4780   34.7950   21.9460 N.ar   44  TRP44      -0.2442
     57  CE2       12.6290   36.0470   22.4670 C.ar   44  TRP44       0.0810
     58  CE3       11.2840   37.6480   23.6900 C.ar   44  TRP44       0.0012
     59  CZ2       13.7420   36.8910   22.4710 C.ar   44  TRP44       0.0191
     60  CZ3       12.3860   38.5010   23.6990 C.ar   44  TRP44       0.0001
     61  CH2       13.5980   38.1300   23.0670 C.ar   44  TRP44       0.0015
     62  N          7.0160   36.0920   26.0520 N.am   45  VAL45      -0.1963
     63  CA         5.6030   36.3630   26.4350 C.3    45  VAL45       0.1727
     64  C          4.7330   36.5250   25.1680 C.2    45  VAL45       0.2616
     65  O          3.6740   35.9280   25.0630 O.2    45  VAL45      -0.2715
     66  CB         5.5160   37.6360   27.2750 C.3    45  VAL45       0.0290
     67  CG1        4.0920   38.0610   27.5200 C.3    45  VAL45       0.0023
     68  CG2        6.2820   37.4600   28.5630 C.3    45  VAL45       0.0023
     69  N          5.1860   37.3300   24.2320 N.am   46  SER46      -0.1950
     70  CA         4.3630   37.6740   23.0780 C.3    46  SER46       0.1924
     71  C          4.0390   36.4700   22.2270 C.2    46  SER46       0.2314
     72  O          2.9660   36.4470   21.6530 O.2    46  SER46      -0.2863
     73  CB         4.9910   38.7500   22.2170 C.3    46  SER46       0.2116
     74  OG         6.1090   38.2990   21.5240 O.3    46  SER46      -0.2180
     75  N          5.0150   46.5980   26.9530 N.3    64  TRP64      -0.1241
     76  CA         6.4080   46.9460   27.3220 C.3    64  TRP64       0.1605
     77  C          7.0430   48.0600   26.4990 C.2    64  TRP64       0.2264
     78  O          8.0610   48.6240   26.9060 O.2    64  TRP64      -0.2867
     79  CB         7.2890   45.7090   27.3750 C.3    64  TRP64       0.0550
     80  CG         7.3520   44.8630   26.1960 C.ar   64  TRP64       0.0003
     81  CD1        8.0550   45.0720   25.0460 C.ar   64  TRP64       0.0946
     82  CD2        6.7840   43.5630   26.0830 C.ar   64  TRP64       0.0152
     83  NE1        7.9370   43.9760   24.2280 N.ar   64  TRP64      -0.2442
     84  CE2        7.1790   43.0210   24.8580 C.ar   64  TRP64       0.0810
     85  CE3        5.9930   42.7730   26.9360 C.ar   64  TRP64       0.0012
     86  CZ2        6.7430   41.7630   24.4240 C.ar   64  TRP64       0.0191
     87  CZ3        5.6010   41.5570   26.5120 C.ar   64  TRP64       0.0001
     88  CH2        5.9690   41.0640   25.2810 C.ar   64  TRP64       0.0015
     89  N          9.2940   49.8760   32.0710 N.3    70  PHE70      -0.1241
     90  CA        10.5360   49.3980   32.6840 C.3    70  PHE70       0.1605
     91  C         10.8230   50.0820   33.9980 C.2    70  PHE70       0.2264
     92  O         11.2230   49.4170   34.9920 O.2    70  PHE70      -0.2867
     93  CB        11.7130   49.4720   31.6880 C.3    70  PHE70       0.0534
     94  CG        11.6220   48.4080   30.6390 C.ar   70  PHE70      -0.0203
     95  CD1       11.9750   47.1320   30.9200 C.ar   70  PHE70      -0.0042
     96  CD2       11.0810   48.6470   29.3980 C.ar   70  PHE70      -0.0042
     97  CE1       11.8640   46.1290   30.0100 C.ar   70  PHE70      -0.0003
     98  CE2       10.9610   47.6380   28.4640 C.ar   70  PHE70      -0.0003
     99  CZ        11.3390   46.3820   28.7460 C.ar   70  PHE70      -0.0000
    100  N         22.1230   43.3950   30.3450 N.3    98  THR98      -0.1203
    101  CA        20.7350   43.4750   29.9740 C.3    98  THR98       0.1994
    102  C         20.6120   43.9280   28.5370 C.2    98  THR98       0.2619
    103  O         21.5290   44.4590   27.9850 O.2    98  THR98      -0.2717
    104  CB        20.0030   44.4770   30.9560 C.3    98  THR98       0.1784
    105  OG1       18.5970   44.5490   30.7050 O.3    98  THR98      -0.2211
    106  CG2       20.5170   45.8840   30.8730 C.3    98  THR98       0.0376
    107  N         19.4440   43.6170   27.9270 N.am   99  SER99      -0.1938
    108  CA        19.1310   43.9480   26.5080 C.3    99  SER99       0.2040
    109  C         18.0480   44.9670   26.3910 C.2    99  SER99       0.2485
    110  O         17.1550   45.0140   27.2230 O.2    99  SER99      -0.2729
    111  CB        18.7530   42.7180   25.7130 C.3    99  SER99       0.2129
    112  OG        19.7400   41.7160   25.8490 O.3    99  SER99      -0.2179
    113  N         18.1170   45.8400   25.4040 N.am  100  PRO100     -0.2715
    114  CA        16.9690   46.7050   25.1360 C.3   100  PRO100      0.1536
    115  C         15.9250   45.9400   24.2950 C.2   100  PRO100      0.2598
    116  O         16.2700   44.9900   23.5760 O.2   100  PRO100     -0.2715
    117  CB        17.5720   47.8010   24.2730 C.3   100  PRO100      0.0310
    118  CG        18.6590   47.1430   23.5070 C.3   100  PRO100      0.0237
    119  CD        19.2290   46.1060   24.4450 C.3   100  PRO100      0.0939
    120  N         14.6760   46.3570   24.3720 N.am  101  ILE101     -0.1978
    121  CA        13.6820   45.9490   23.3790 C.3   101  ILE101      0.1596
    122  C         13.9560   46.6830   22.0950 C.2   101  ILE101      0.2287
    123  O         14.7740   47.5820   22.0470 O.2   101  ILE101     -0.2864
    124  CB        12.2330   46.2030   23.8680 C.3   101  ILE101      0.0276
    125  CG1       11.9840   47.6880   24.1760 C.3   101  ILE101      0.0022
    126  CG2       11.8940   45.3300   25.0440 C.3   101  ILE101      0.0022
    127  CD1       10.5690   48.0500   24.3220 C.3   101  ILE101      0.0001
    128  N         15.9090   51.7880   32.1540 N.3   111  LYS111     -0.1245
    129  CA        16.7640   50.7990   32.7930 C.3   111  LYS111      0.1561
    130  C         17.8900   51.4640   33.5860 C.2   111  LYS111      0.2260
    131  O         18.1840   51.0600   34.7230 O.2   111  LYS111     -0.2867
    132  CB        17.3100   49.8350   31.7590 C.3   111  LYS111      0.0271
    133  CG        16.2510   48.7990   31.3080 C.3   111  LYS111      0.0035
    134  CD        16.7980   47.9280   30.1990 C.3   111  LYS111      0.0206
    135  CE        15.9470   46.6890   29.9060 C.3   111  LYS111      0.1093
    136  NZ        16.0760   45.7350   31.0370 N.3   111  LYS111     -0.1314
    137  N         22.4460   43.3480   22.9810 N.3   131  ARG131     -0.1245
    138  CA        21.5860   42.2490   22.5160 C.3   131  ARG131      0.1563
    139  C         22.3400   40.9380   22.4610 C.2   131  ARG131      0.2260
    140  O         21.7020   39.8700   22.3560 O.2   131  ARG131     -0.2867
    141  CB        20.9420   42.5560   21.1630 C.3   131  ARG131      0.0307
    142  CG        19.5850   41.8950   21.0340 C.3   131  ARG131      0.0489
    143  CD        18.7120   42.4670   19.9270 C.3   131  ARG131      0.2205
    144  NE        17.8940   41.4280   19.2890 N.pl3 131  ARG131     -0.0865
    145  CZ        18.3660   40.4470   18.5050 C.cat 131  ARG131      0.5346
    146  NH1       17.5090   39.5670   17.9810 N.pl3 131  ARG131      0.1354
    147  NH2       19.6630   40.3230   18.2350 N.pl3 131  ARG131      0.1354
    148  N         24.9580   38.7010   24.6240 N.3   133  LYS133     -0.1245
    149  CA        25.6790   38.5140   25.8880 C.3   133  LYS133      0.1561
    150  C         26.8890   37.6260   25.7450 C.2   133  LYS133      0.2260
    151  O         27.7740   37.6010   26.6090 O.2   133  LYS133     -0.2867
    152  CB        24.7140   38.0530   27.0030 C.3   133  LYS133      0.0271
    153  CG        23.5030   39.0040   27.1760 C.3   133  LYS133      0.0035
    154  CD        22.6440   38.6800   28.4030 C.3   133  LYS133      0.0206
    155  CE        21.4240   39.5670   28.3800 C.3   133  LYS133      0.1093
    156  NZ        20.5670   39.4100   29.6010 N.3   133  LYS133     -0.1314
    157  N         20.9530   34.4100   34.5000 N.3   143  ASP143     -0.1225
    158  CA        19.9940   34.8720   33.5130 C.3   143  ASP143      0.1805
    159  C         18.8450   33.8320   33.4230 C.2   143  ASP143      0.2598
    160  O         19.1020   32.6360   33.4730 O.2   143  ASP143     -0.2718
    161  CB        20.7910   35.0400   32.1840 C.3   143  ASP143      0.1424
    162  CG        20.0260   35.7340   31.0860 C.2   143  ASP143      0.3668
    163  OD1       18.8250   35.3920   30.8240 O.co2 143  ASP143     -0.2456
    164  OD2       20.5820   36.6750   30.4030 O.co2 143  ASP143     -0.2456
    165  N         17.6180   34.3030   33.3150 N.am  144  ASP144     -0.1960
    166  CA        16.4440   33.4380   33.1910 C.3   144  ASP144      0.1840
    167  C         16.1510   32.8230   31.8590 C.2   144  ASP144      0.2621
    168  O         15.2480   31.9770   31.7480 O.2   144  ASP144     -0.2715
    169  CB        15.1860   34.1460   33.7110 C.3   144  ASP144      0.1450
    170  CG        14.8000   35.2960   32.8640 C.2   144  ASP144      0.3671
    171  OD1       15.6590   36.1440   32.6160 O.co2 144  ASP144     -0.2456
    172  OD2       13.6280   35.4280   32.4360 O.co2 144  ASP144     -0.2456
    173  N         16.8510   33.2320   30.8270 N.am  145  ARG145     -0.1977
    174  CA        16.6220   32.7380   29.4620 C.3   145  ARG145      0.1597
    175  C         17.3320   31.3990   29.2450 C.2   145  ARG145      0.2287
    176  O         18.5410   31.3290   29.4140 O.2   145  ARG145     -0.2864
    177  CB        17.1370   33.7530   28.4400 C.3   145  ARG145      0.0334
    178  CG        16.7990   33.4170   27.0270 C.3   145  ARG145      0.0492
    179  CD        17.0880   34.5860   26.1530 C.3   145  ARG145      0.2205
    180  NE        16.8780   34.3490   24.7330 N.pl3 145  ARG145     -0.0865
    181  CZ        16.8510   35.3360   23.8570 C.cat 145  ARG145      0.5346
    182  NH1       17.0100   36.5870   24.2450 N.pl3 145  ARG145      0.1354
    183  NH2       16.6880   35.0450   22.6190 N.pl3 145  ARG145      0.1354
@<TRIPOS>BOND
     1   146   145    1
     2   147   145    1
     3   145   144    2
     4   144   143    1
     5   143   142    1
     6   142   141    1
     7   141   138    1
     8    74    73    1
     9    72    71    2
    10    56    54   ar
    11    56    57   ar
    12   123   122    2
    13   122   121    1
    14    54    53   ar
    15    73    70    1
    16    71    70    1
    17   140   139    2
    18   139   138    1
    19    57    59   ar
    20    57    55   ar
    21    59    61   ar
    22   138   137    1
    23   183   181    1
    24    53    55   ar
    25    53    52    1
    26    55    58   ar
    27    61    60   ar
    28    70    69    1
    29    52    49    1
    30   121   124    1
    31   121   120    1
    32   118   117    1
    33   118   119    1
    34   116   115    2
    35    58    60   ar
    36   181   182    1
    37   181   180    2
    38   124   125    1
    39   124   126    1
    40   125   127    1
    41    83    84   ar
    42    83    81   ar
    43    69    64   am
    44   117   114    1
    45   115   120   am
    46   115   114    1
    47    86    84   ar
    48    86    88   ar
    49   119   113    1
    50   148   149    1
    51    51    50    2
    52   180   179    1
    53    49    50    1
    54    49    48    1
    55    84    82   ar
    56    81    80   ar
    57    65    64    2
    58   114   113    1
    59    64    63    1
    60    50    62   am
    61    88    87   ar
    62    48    39   am
    63   113   109   am
    64   111   112    1
    65   111   108    1
    66   150   149    1
    67   150   151    2
    68   149   152    1
    69    44    46   ar
    70    44    42   ar
    71    62    63    1
    72    82    80   ar
    73    82    85   ar
    74   179   178    1
    75    80    79    1
    76    46    47   ar
    77   109   108    1
    78   109   110    2
    79    63    66    1
    80    41    42    1
    81    41    38    1
    82    77    78    2
    83    77    76    1
    84   108   107    1
    85    87    85   ar
    86    37    38    1
    87    39    38    1
    88    39    40    2
    89    42    43   ar
    90    75    76    1
    91   152   153    1
    92   178   177    1
    93   153   154    1
    94    66    67    1
    95    66    68    1
    96    76    79    1
    97    47    45   ar
    98   107   102   am
    99   103   102    2
   100    43    45   ar
   101   155   154    1
   102   155   156    1
   103   177   174    1
   104    98    99   ar
   105    98    96   ar
   106   102   101    1
   107    99    97   ar
   108    27    26   ar
   109    27    25   ar
   110   175   176    2
   111   175   174    1
   112    96    94   ar
   113   174   173    1
   114    26    24   ar
   115    25    23   ar
   116   135   134    1
   117   135   136    1
   118   101   100    1
   119   101   104    1
   120    97    95   ar
   121   134   133    1
   122   164   162   ar
   123    94    95   ar
   124    94    93    1
   125   105   104    1
   126   163   162   ar
   127   173   167   am
   128   106   104    1
   129    16    14   ar
   130    24    22   ar
   131    23    22   ar
   132   162   161    1
   133   133   132    1
   134    36    34   ar
   135    93    90    1
   136    22    21    1
   137    14    13    1
   138    14    15   ar
   139   168   167    2
   140   132   129    1
   141     7     6   ar
   142   167   166    1
   143    35    34   ar
   144    89    90    1
   145    13    10    1
   146   128   129    1
   147   161   158    1
   148    34    33    1
   149   172   170   ar
   150     8     6   ar
   151     6     5    1
   152   171   170   ar
   153    90    91    1
   154   129   130    1
   155   170   169    1
   156    21    18    1
   157   166   165    1
   158   166   169    1
   159    12    11    2
   160   165   159   am
   161   159   160    2
   162   159   158    1
   163    10     9    1
   164    10    11    1
   165     5     2    1
   166   158   157    1
   167    20    19    2
   168    33    32    1
   169   130   131    2
   170    91    92    2
   171    19    18    1
   172    19    28   am
   173     2     3    1
   174     2     1    1
   175    29    28    1
   176    29    32    1
   177    29    30    1
   178    18    17    1
   179    31    30    2
   180     3     4    2
