@<TRIPOS>MOLECULE
tmp/1q9hA00.pdb
 82 80 0 0 0
SMALL
GASTEIGER

@<TRIPOS>ATOM
      1  N         30.2540  -22.9260   91.4760 N.3   260  GLY260     -0.1210
      2  CA        31.5050  -23.6160   91.6840 C.3   260  GLY260      0.1956
      3  C         31.4870  -25.0680   91.2700 C.2   260  GLY260      0.2612
      4  O         32.4710  -25.7630   91.5020 O.2   260  GLY260     -0.2717
      5  N         30.3920  -25.5390   90.6750 N.am  261  ASN261     -0.1960
      6  CA        30.3570  -26.8880   90.1050 C.3   261  ASN261      0.1819
      7  C         30.4760  -26.8220   88.5970 C.2   261  ASN261      0.2622
      8  O         29.5090  -26.5080   87.9010 O.2   261  ASN261     -0.2715
      9  CB        29.0900  -27.6440   90.4990 C.3   261  ASN261      0.1195
     10  CG        29.2380  -29.1480   90.3130 C.2   261  ASN261      0.2630
     11  OD1       29.6500  -29.6000   89.2470 O.2   261  ASN261     -0.2716
     12  ND2       28.9140  -29.9280   91.3710 N.am  261  ASN261     -0.0877
     13  N         31.6680  -27.1020   88.0830 N.am  262  THR262     -0.1937
     14  CA        31.9150  -26.9120   86.6620 C.3   262  THR262      0.2028
     15  C         31.7350  -28.1880   85.9000 C.2   262  THR262      0.2643
     16  O         31.8330  -28.1930   84.7020 O.2   262  THR262     -0.2714
     17  CB        33.3290  -26.3210   86.3930 C.3   262  THR262      0.1808
     18  OG1       34.3220  -27.2830   86.7350 O.3   262  THR262     -0.2208
     19  CG2       33.6180  -25.1530   87.3000 C.3   262  THR262      0.0379
     20  N         31.4470  -29.2800   86.5790 N.am  263  SER263     -0.1935
     21  CA        31.1690  -30.5170   85.8600 C.3   263  SER263      0.2055
     22  C         29.6770  -30.8830   85.8190 C.2   263  SER263      0.2643
     23  O         29.3320  -31.9770   85.3650 O.2   263  SER263     -0.2714
     24  CB        32.0320  -31.6690   86.4290 C.3   263  SER263      0.2130
     25  OG        31.6560  -31.9610   87.7610 O.3   263  SER263     -0.2179
     26  N         28.7860  -29.9870   86.2440 N.am  264  PHE264     -0.1973
     27  CA        27.3590  -30.3420   86.2710 C.3   264  PHE264      0.1639
     28  C         26.6320  -30.1480   84.9250 C.2   264  PHE264      0.2290
     29  O         25.9240  -31.0440   84.4760 O.2   264  PHE264     -0.2864
     30  CB        26.5940  -29.6050   87.3740 C.3   264  PHE264      0.0560
     31  CG        25.1320  -29.9720   87.4190 C.ar  264  PHE264     -0.0200
     32  CD1       24.7330  -31.2200   87.8780 C.ar  264  PHE264     -0.0042
     33  CD2       24.1610  -29.0820   86.9890 C.ar  264  PHE264     -0.0042
     34  CE1       23.3940  -31.5620   87.9110 C.ar  264  PHE264     -0.0003
     35  CE2       22.8130  -29.4250   87.0230 C.ar  264  PHE264     -0.0003
     36  CZ        22.4320  -30.6540   87.4800 C.ar  264  PHE264     -0.0000
     37  N         27.0490  -33.9200   83.4370 N.3   270  ILE270     -0.1245
     38  CA        26.0010  -34.6540   84.1580 C.3   270  ILE270      0.1561
     39  C         24.6470  -34.3470   83.4980 C.2   270  ILE270      0.2260
     40  O         23.9330  -35.2590   83.1180 O.2   270  ILE270     -0.2867
     41  CB        25.9340  -34.2550   85.6470 C.3   270  ILE270      0.0252
     42  CG1       27.3220  -34.2300   86.3210 C.3   270  ILE270      0.0019
     43  CG2       24.9120  -35.1190   86.3810 C.3   270  ILE270      0.0019
     44  CD1       27.7490  -35.5000   86.9830 C.3   270  ILE270      0.0001
     45  N         17.6410  -35.7050   88.5430 N.3   308  ILE308     -0.1231
     46  CA        18.8830  -35.1670   89.0630 C.3   308  ILE308      0.1678
     47  C         18.6690  -33.7720   89.6450 C.2   308  ILE308      0.2434
     48  O         18.3290  -32.8450   88.9240 O.2   308  ILE308     -0.2733
     49  CB        19.9250  -35.0950   87.9340 C.3   308  ILE308      0.0265
     50  CG1       20.1790  -36.4760   87.3410 C.3   308  ILE308      0.0019
     51  CG2       21.2140  -34.4910   88.4400 C.3   308  ILE308      0.0020
     52  CD1       20.5280  -36.4200   85.8700 C.3   308  ILE308      0.0001
     53  N         18.8520  -33.6110   90.9430 N.am  309  PRO309     -0.2729
     54  CA        18.6560  -32.3030   91.5670 C.3   309  PRO309      0.1401
     55  C         19.7470  -31.3150   91.2600 C.2   309  PRO309      0.2269
     56  O         20.8730  -31.6940   90.9700 O.2   309  PRO309     -0.2865
     57  CB        18.6390  -32.6040   93.0810 C.3   309  PRO309      0.0296
     58  CG        19.2790  -33.9130   93.2500 C.3   309  PRO309      0.0237
     59  CD        19.1670  -34.6630   91.9260 C.3   309  PRO309      0.0939
     60  N         22.7640  -29.1010   91.7520 N.3   311  PRO311     -0.2102
     61  CA        23.9480  -29.3160   92.5900 C.3   311  PRO311      0.1504
     62  C         24.0040  -28.3130   93.7320 C.2   311  PRO311      0.2575
     63  O         23.4820  -27.1990   93.6080 O.2   311  PRO311     -0.2718
     64  CB        25.1070  -29.1100   91.6150 C.3   311  PRO311      0.0282
     65  CG        24.5680  -28.2230   90.5720 C.3   311  PRO311      0.0208
     66  CD        23.1200  -28.6020   90.4120 C.3   311  PRO311      0.0893
     67  N         24.5980  -28.7140   94.8450 N.am  312  ASN312     -0.1975
     68  CA        24.8680  -27.7830   95.9430 C.3   312  ASN312      0.1688
     69  C         25.9190  -26.7390   95.5650 C.2   312  ASN312      0.2292
     70  O         26.8470  -27.0030   94.7890 O.2   312  ASN312     -0.2864
     71  CB        25.3830  -28.5240   97.1840 C.3   312  ASN312      0.1181
     72  CG        24.3500  -29.4500   97.8070 C.2   312  ASN312      0.2629
     73  OD1       23.1550  -29.1150   97.9290 O.2   312  ASN312     -0.2716
     74  ND2       24.8160  -30.6260   98.2380 N.am  312  ASN312     -0.0877
     75  N         29.1950  -24.9340   95.8910 N.3   314  ASP314     -0.1239
     76  CA        30.5310  -25.1990   96.3870 C.3   314  ASP314      0.1674
     77  C         31.3200  -23.9050   96.6010 C.2   314  ASP314      0.2266
     78  O         32.5420  -23.8990   96.5030 O.2   314  ASP314     -0.2867
     79  CB        31.2660  -26.1160   95.4130 C.3   314  ASP314      0.1410
     80  CG        32.4390  -26.8320   96.0650 C.2   314  ASP314      0.3668
     81  OD1       32.2300  -27.4470   97.1460 O.co2 314  ASP314     -0.2456
     82  OD2       33.5980  -26.8080   95.5790 O.co2 314  ASP314     -0.2456
@<TRIPOS>BOND
     1    40    39    2
     2    37    38    1
     3    39    38    1
     4    38    41    1
     5    29    28    2
     6    16    15    2
     7    28    27    1
     8    23    22    2
     9    41    42    1
    10    41    43    1
    11    22    21    1
    12    22    26   am
    13    21    24    1
    14    21    20    1
    15    52    50    1
    16    15    20   am
    17    15    14    1
    18    26    27    1
    19    27    30    1
    20    42    44    1
    21    17    14    1
    22    17    18    1
    23    17    19    1
    24    24    25    1
    25    14    13    1
    26    33    35   ar
    27    33    31   ar
    28    35    36   ar
    29    50    49    1
    30    30    31    1
    31    31    32   ar
    32    36    34   ar
    33    32    34   ar
    34     8     7    2
    35    49    51    1
    36    49    46    1
    37    13     7   am
    38    45    46    1
    39     7     6    1
    40    48    47    2
    41    46    47    1
    42    11    10    2
    43    47    53   am
    44     6     9    1
    45     6     5    1
    46    10     9    1
    47    10    12   am
    48    66    65    1
    49    66    60    1
    50    65    64    1
    51     5     3   am
    52    53    54    1
    53    53    59    1
    54    56    55    2
    55    55    54    1
    56     3     4    2
    57     3     2    1
    58     1     2    1
    59    54    57    1
    60    64    61    1
    61    60    61    1
    62    59    58    1
    63    61    62    1
    64    57    58    1
    65    63    62    2
    66    62    67   am
    67    70    69    2
    68    67    68    1
    69    79    80    1
    70    79    76    1
    71    69    68    1
    72    82    80   ar
    73    75    76    1
    74    68    71    1
    75    80    81   ar
    76    76    77    1
    77    78    77    2
    78    71    72    1
    79    72    73    2
    80    72    74   am
