@<TRIPOS>MOLECULE
tmp/1q9sA01.pdb
 215 205 0 0 0
SMALL
GASTEIGER

@<TRIPOS>ATOM
      1  N         27.6270   34.4710   19.1830 N.3    16  GLY16      -0.1210
      2  CA        27.6830   34.3670   17.7290 C.3    16  GLY16       0.1956
      3  C         29.0980   33.9160   17.3580 C.2    16  GLY16       0.2612
      4  O         29.7460   33.2140   18.1160 O.2    16  GLY16      -0.2717
      5  N         29.6010   34.3100   16.2040 N.am   17  PHE17      -0.1962
      6  CA        30.9440   33.9050   15.8030 C.3    17  PHE17       0.1771
      7  C         32.0230   34.7870   16.4010 C.2    17  PHE17       0.2620
      8  O         33.1970   34.5200   16.2230 O.2    17  PHE17      -0.2715
      9  CB        31.0650   33.9660   14.2900 C.3    17  PHE17       0.0574
     10  CG        30.4060   32.8220   13.5850 C.ar   17  PHE17      -0.0200
     11  CD1       31.0580   31.5750   13.4880 C.ar   17  PHE17      -0.0042
     12  CD2       29.1390   32.9690   13.0240 C.ar   17  PHE17      -0.0042
     13  CE1       30.4520   30.4930   12.8350 C.ar   17  PHE17      -0.0003
     14  CE2       28.5160   31.9060   12.3780 C.ar   17  PHE17      -0.0003
     15  CZ        29.1650   30.6580   12.2750 C.ar   17  PHE17      -0.0000
     16  N         31.6220   35.8500   17.0900 N.am   18  GLY18      -0.1940
     17  CA        32.5940   36.7660   17.6540 C.3    18  GLY18       0.2014
     18  C         33.1770   37.6090   16.5280 C.2    18  GLY18       0.2639
     19  O         34.3920   37.8160   16.4630 O.2    18  GLY18      -0.2714
     20  N         32.3180   38.1050   15.6370 N.am   19  ARG19      -0.1963
     21  CA        32.7910   38.8960   14.5110 C.3    19  ARG19       0.1729
     22  C         32.3480   40.3470   14.5060 C.2    19  ARG19       0.2616
     23  O         33.0680   41.2060   14.0030 O.2    19  ARG19      -0.2715
     24  CB        32.3300   38.2810   13.1790 C.3    19  ARG19       0.0348
     25  CG        32.9380   36.9260   12.7820 C.3    19  ARG19       0.0492
     26  CD        32.1430   36.3500   11.5600 C.3    19  ARG19       0.2205
     27  NE        32.5920   35.0290   11.1350 N.pl3  19  ARG19      -0.0865
     28  CZ        31.8260   34.0910   10.5680 C.cat  19  ARG19       0.5346
     29  NH1       30.5310   34.2860   10.3430 N.pl3  19  ARG19       0.1354
     30  NH2       32.3770   32.9480   10.1880 N.pl3  19  ARG19       0.1354
     31  N         31.1710   40.6220   15.0570 N.am   20  GLY20      -0.1955
     32  CA        30.6390   41.9730   14.9940 C.3    20  GLY20       0.1869
     33  C         31.4770   43.0920   15.5600 C.2    20  GLY20       0.2309
     34  O         31.8900   44.0300   14.8690 O.2    20  GLY20      -0.2863
     35  N         33.9380   44.1630   12.7470 N.3    24  LEU24      -0.1245
     36  CA        33.1960   45.2870   12.2040 C.3    24  LEU24       0.1561
     37  C         33.0330   46.4880   13.0900 C.2    24  LEU24       0.2260
     38  O         32.6220   47.5280   12.6190 O.2    24  LEU24      -0.2867
     39  CB        31.8050   44.7920   11.7670 C.3    24  LEU24       0.0270
     40  CG        31.6670   43.9640   10.4730 C.3    24  LEU24       0.0019
     41  CD1       32.9840   43.3360   10.0930 C.3    24  LEU24       0.0001
     42  CD2       30.5590   42.9270   10.6170 C.3    24  LEU24       0.0001
     43  N         30.8340   46.6960   15.0620 N.3    26  ILE26      -0.1245
     44  CA        29.3770   46.7730   15.1830 C.3    26  ILE26       0.1561
     45  C         28.7880   45.5050   15.8330 C.2    26  ILE26       0.2260
     46  O         28.4220   44.5580   15.1610 O.2    26  ILE26      -0.2867
     47  CB        28.7460   46.9980   13.7800 C.3    26  ILE26       0.0252
     48  CG1       29.4970   48.1320   13.0720 C.3    26  ILE26       0.0019
     49  CG2       27.2490   47.3420   13.9210 C.3    26  ILE26       0.0019
     50  CD1       29.0840   48.3900   11.6550 C.3    26  ILE26       0.0001
     51  N         26.3170   42.7070   17.3600 N.3    28  THR28      -0.1218
     52  CA        24.9420   42.3370   17.0500 C.3    28  THR28       0.1862
     53  C         24.4970   41.3540   18.1000 C.2    28  THR28       0.2287
     54  O         25.2430   40.4710   18.4620 O.2    28  THR28      -0.2866
     55  CB        24.7960   41.6740   15.6450 C.3    28  THR28       0.1770
     56  OG1       25.6520   40.5150   15.5420 O.3    28  THR28      -0.2211
     57  CG2       25.1480   42.6630   14.5690 C.3    28  THR28       0.0375
     58  N         22.6020   38.1910   19.0510 N.3    30  ASN30      -0.1240
     59  CA        22.0970   37.0450   18.2770 C.3    30  ASN30       0.1653
     60  C         21.0450   36.2000   18.9670 C.2    30  ASN30       0.2266
     61  O         21.1550   35.9110   20.1670 O.2    30  ASN30      -0.2867
     62  CB        23.2500   36.1080   17.8760 C.3    30  ASN30       0.1155
     63  CG        24.2360   36.7670   16.9290 C.2    30  ASN30       0.2627
     64  OD1       24.4000   37.9860   16.9460 O.2    30  ASN30      -0.2716
     65  ND2       24.9050   35.9600   16.0990 N.am   30  ASN30      -0.0877
     66  N         17.8740   42.6980    5.4380 N.3    47  ILE47      -0.1245
     67  CA        18.1790   43.6280    6.5030 C.3    47  ILE47       0.1561
     68  C         16.9770   44.4930    6.8230 C.2    47  ILE47       0.2260
     69  O         16.3970   45.1120    5.9280 O.2    47  ILE47      -0.2867
     70  CB        19.3560   44.5210    6.0790 C.3    47  ILE47       0.0252
     71  CG1       20.4100   43.6720    5.3620 C.3    47  ILE47       0.0019
     72  CG2       19.9600   45.2050    7.2870 C.3    47  ILE47       0.0019
     73  CD1       20.9160   42.5010    6.1840 C.3    47  ILE47       0.0001
     74  N         18.7730   47.8630   13.9130 N.3    63  VAL63      -0.1231
     75  CA        18.7180   47.2670   12.5960 C.3    63  VAL63       0.1692
     76  C         18.9800   45.8090   12.9210 C.2    63  VAL63       0.2592
     77  O         19.7050   45.4900   13.8860 O.2    63  VAL63      -0.2718
     78  CB        19.8090   47.7640   11.6400 C.3    63  VAL63       0.0266
     79  CG1       19.4290   49.1640   11.1230 C.3    63  VAL63       0.0020
     80  CG2       21.1870   47.7230   12.3450 C.3    63  VAL63       0.0020
     81  N         18.3980   44.9320   12.1220 N.am   64  VAL64      -0.1966
     82  CA        18.5380   43.5210   12.3520 C.3    64  VAL64       0.1727
     83  C         18.7480   42.8100   11.0370 C.2    64  VAL64       0.2616
     84  O         18.1060   43.1590   10.0340 O.2    64  VAL64      -0.2715
     85  CB        17.2570   42.9650   13.0580 C.3    64  VAL64       0.0290
     86  CG1       16.0350   43.3710   12.2850 C.3    64  VAL64       0.0023
     87  CG2       17.3340   41.4350   13.1770 C.3    64  VAL64       0.0023
     88  N         19.6730   41.8500   11.0290 N.am   65  SER65      -0.1950
     89  CA        19.9120   41.0590    9.8270 C.3    65  SER65       0.1924
     90  C         19.3070   39.6700   10.0250 C.2    65  SER65       0.2314
     91  O         19.4420   39.0770   11.1090 O.2    65  SER65      -0.2863
     92  CB        21.4170   40.9180    9.5330 C.3    65  SER65       0.2116
     93  OG        22.0960   40.1530   10.5170 O.3    65  SER65      -0.2180
     94  N         24.4780   35.7150    5.8960 N.3    69  ASN69      -0.1226
     95  CA        25.6810   36.5640    5.8440 C.3    69  ASN69       0.1770
     96  C         26.6180   36.1870    4.6880 C.2    69  ASN69       0.2439
     97  O         27.7090   35.6450    4.9010 O.2    69  ASN69      -0.2733
     98  CB        26.4220   36.4940    7.1830 C.3    69  ASN69       0.1168
     99  CG        25.5130   36.8320    8.3860 C.2    69  ASN69       0.2627
    100  OD1       25.9540   36.7920    9.5550 O.2    69  ASN69      -0.2716
    101  ND2       24.2510   37.1650    8.1070 N.am   69  ASN69      -0.0877
    102  N         26.2080   36.5110    3.4420 N.am   70  PRO70      -0.2718
    103  CA        26.9530   36.2310    2.2080 C.3    70  PRO70       0.1535
    104  C         28.4460   36.5110    2.2450 C.2    70  PRO70       0.2599
    105  O         29.2180   35.8600    1.5540 O.2    70  PRO70      -0.2715
    106  CB        26.2390   37.0900    1.1530 C.3    70  PRO70       0.0310
    107  CG        24.8320   37.1640    1.6880 C.3    70  PRO70       0.0237
    108  CD        25.0580   37.3980    3.1580 C.3    70  PRO70       0.0939
    109  N         28.8570   37.4890    3.0290 N.am   71  TYR71      -0.1960
    110  CA        30.2740   37.7970    3.1120 C.3    71  TYR71       0.1771
    111  C         31.0160   36.6790    3.8330 C.2    71  TYR71       0.2619
    112  O         32.1060   36.3080    3.4240 O.2    71  TYR71      -0.2715
    113  CB        30.5110   39.0960    3.8710 C.3    71  TYR71       0.0574
    114  CG        31.9710   39.5120    3.9230 C.ar   71  TYR71      -0.0198
    115  CD1       32.5480   40.2550    2.8890 C.ar   71  TYR71      -0.0009
    116  CD2       32.7750   39.1770    5.0160 C.ar   71  TYR71      -0.0009
    117  CE1       33.8840   40.6580    2.9410 C.ar   71  TYR71       0.0417
    118  CE2       34.1000   39.5740    5.0780 C.ar   71  TYR71       0.0417
    119  CZ        34.6510   40.3130    4.0400 C.ar   71  TYR71       0.1957
    120  OH        35.9720   40.6990    4.1070 O.3    71  TYR71      -0.2866
    121  N         30.4260   36.1530    4.9040 N.am   72  TYR72      -0.1974
    122  CA        31.0590   35.1000    5.6790 C.3    72  TYR72       0.1639
    123  C         30.6010   33.7220    5.2730 C.2    72  TYR72       0.2290
    124  O         31.1650   32.7240    5.7260 O.2    72  TYR72      -0.2864
    125  CB        30.7480   35.2820    7.1590 C.3    72  TYR72       0.0560
    126  CG        31.3620   36.5230    7.7330 C.ar   72  TYR72      -0.0198
    127  CD1       32.7020   36.5300    8.1340 C.ar   72  TYR72      -0.0009
    128  CD2       30.6250   37.7180    7.8360 C.ar   72  TYR72      -0.0009
    129  CE1       33.2910   37.6690    8.6120 C.ar   72  TYR72       0.0417
    130  CE2       31.2180   38.8830    8.3180 C.ar   72  TYR72       0.0417
    131  CZ        32.5570   38.8490    8.7000 C.ar   72  TYR72       0.1957
    132  OH        33.2030   39.9960    9.1270 O.3    72  TYR72      -0.2866
    133  N         20.3450   38.6640   13.8580 N.3    80  GLU80      -0.1245
    134  CA        21.2490   39.5210   14.6160 C.3    80  GLU80       0.1567
    135  C         20.7890   40.9790   14.6680 C.2    80  GLU80       0.2260
    136  O         20.5960   41.6430   13.6420 O.2    80  GLU80      -0.2867
    137  CB        22.6270   39.4330   13.9750 C.3    80  GLU80       0.0388
    138  CG        22.9910   38.0270   13.5750 C.3    80  GLU80       0.1160
    139  CD        24.4170   37.9090   13.0290 C.2    80  GLU80       0.3649
    140  OE1       25.3020   38.6830   13.4660 O.co2  80  GLU80      -0.2457
    141  OE2       24.6460   37.0250   12.1760 O.co2  80  GLU80      -0.2457
    142  N         21.4510   44.8630   15.8800 N.3    82  HIS82      -0.1241
    143  CA        22.4090   45.8490   16.3360 C.3    82  HIS82       0.1621
    144  C         21.5590   47.0270   16.8020 C.2    82  HIS82       0.2264
    145  O         20.8070   47.6130   16.0170 O.2    82  HIS82      -0.2867
    146  CB        23.3510   46.3140   15.2420 C.3    82  HIS82       0.0745
    147  CG        24.1910   47.4780   15.6700 C.ar   82  HIS82       0.0817
    148  ND1       25.0530   47.4060   16.7460 N.ar   82  HIS82      -0.2268
    149  CD2       24.1720   48.7750   15.2910 C.ar   82  HIS82       0.1154
    150  CE1       25.5140   48.6120   17.0190 C.ar   82  HIS82       0.1986
    151  NE2       24.9920   49.4620   16.1540 N.ar   82  HIS82      -0.2212
    152  N         16.9750   46.3530    2.7880 N.3   105  ARG105     -0.1245
    153  CA        17.5840   45.7490    1.6000 C.3   105  ARG105      0.1563
    154  C         17.8760   44.2770    1.8290 C.2   105  ARG105      0.2260
    155  O         17.6750   43.7520    2.9180 O.2   105  ARG105     -0.2867
    156  CB        18.9110   46.4520    1.3070 C.3   105  ARG105      0.0307
    157  CG        19.9990   46.1990    2.3960 C.3   105  ARG105      0.0489
    158  CD        21.3580   46.8750    2.0810 C.3   105  ARG105      0.2205
    159  NE        22.3250   46.7300    3.1640 N.pl3 105  ARG105     -0.0865
    160  CZ        23.0110   45.6120    3.4270 C.cat 105  ARG105      0.5346
    161  NH1       22.8430   44.5190    2.6720 N.pl3 105  ARG105      0.1354
    162  NH2       23.8580   45.5740    4.4550 N.pl3 105  ARG105      0.1354
    163  N         20.4570   40.8570    1.9880 N.3   107  GLU107     -0.1231
    164  CA        21.8300   40.5290    2.3880 C.3   107  GLU107      0.1699
    165  C         22.7290   40.5910    1.1380 C.2   107  GLU107      0.2592
    166  O         22.2860   40.2730    0.0400 O.2   107  GLU107     -0.2718
    167  CB        21.9350   39.0820    2.8460 C.3   107  GLU107      0.0402
    168  CG        21.1530   38.6070    4.0060 C.3   107  GLU107      0.1161
    169  CD        21.7040   37.2460    4.4880 C.2   107  GLU107      0.3649
    170  OE1       21.4570   36.1680    3.8530 O.co2 107  GLU107     -0.2457
    171  OE2       22.4140   37.2740    5.5130 O.co2 107  GLU107     -0.2457
    172  N         23.9970   40.9290    1.3000 N.am  108  LYS108     -0.1980
    173  CA        24.8700   40.9570    0.1420 C.3   108  LYS108      0.1596
    174  C         26.2520   40.4810    0.4600 C.2   108  LYS108      0.2287
    175  O         26.6440   40.3500    1.6250 O.2   108  LYS108     -0.2864
    176  CB        25.0630   42.3640   -0.3900 C.3   108  LYS108      0.0298
    177  CG        23.8490   43.0840   -0.7470 C.3   108  LYS108      0.0038
    178  CD        24.2170   44.5290   -0.9430 C.3   108  LYS108      0.0206
    179  CE        22.9700   45.3440   -1.2430 C.3   108  LYS108      0.1093
    180  NZ        23.2700   46.8060   -1.2100 N.3   108  LYS108     -0.1314
    181  N         30.3480   41.3330   -0.3090 N.3   110  PHE110     -0.1241
    182  CA        31.1190   42.5430   -0.5390 C.3   110  PHE110      0.1605
    183  C         32.5330   42.1340   -0.8920 C.2   110  PHE110      0.2264
    184  O         32.9260   40.9890   -0.6600 O.2   110  PHE110     -0.2867
    185  CB        31.1190   43.4180    0.7150 C.3   110  PHE110      0.0534
    186  CG        29.7690   43.9810    1.0540 C.ar  110  PHE110     -0.0203
    187  CD1       29.3120   45.1470    0.4410 C.ar  110  PHE110     -0.0042
    188  CD2       28.9310   43.3130    1.9380 C.ar  110  PHE110     -0.0042
    189  CE1       28.0270   45.6400    0.7030 C.ar  110  PHE110     -0.0003
    190  CE2       27.6530   43.7840    2.2110 C.ar  110  PHE110     -0.0003
    191  CZ        27.1920   44.9620    1.5870 C.ar  110  PHE110     -0.0000
    192  N         31.5870   46.2780    3.5110 N.3   116  LEU116     -0.1245
    193  CA        30.5130   45.7650    4.3680 C.3   116  LEU116      0.1561
    194  C         30.2390   46.7160    5.5370 C.2   116  LEU116      0.2260
    195  O         29.0850   47.0750    5.8080 O.2   116  LEU116     -0.2867
    196  CB        30.8660   44.3700    4.9090 C.3   116  LEU116      0.0270
    197  CG        30.0350   43.7060    6.0350 C.3   116  LEU116      0.0019
    198  CD1       28.5930   43.2740    5.5860 C.3   116  LEU116      0.0001
    199  CD2       30.8200   42.4620    6.4820 C.3   116  LEU116      0.0001
    200  N         26.6730   48.5030    6.2490 N.3   120  ILE120     -0.1245
    201  CA        25.9580   48.3950    7.4830 C.3   120  ILE120      0.1561
    202  C         25.7760   49.7830    8.0740 C.2   120  ILE120      0.2260
    203  O         24.6970   50.1260    8.5700 O.2   120  ILE120     -0.2867
    204  CB        26.7130   47.4880    8.4210 C.3   120  ILE120      0.0252
    205  CG1       26.6350   46.0730    7.8620 C.3   120  ILE120      0.0019
    206  CG2       26.1720   47.6110    9.8360 C.3   120  ILE120      0.0019
    207  CD1       27.4560   45.0470    8.6130 C.3   120  ILE120      0.0001
    208  N         22.9660   51.2720    6.5720 N.3   123  ASP123     -0.1239
    209  CA        21.6550   50.8440    7.0390 C.3   123  ASP123      0.1674
    210  C         21.2780   51.5660    8.3240 C.2   123  ASP123      0.2266
    211  O         20.1330   51.9680    8.5100 O.2   123  ASP123     -0.2867
    212  CB        21.6110   49.3420    7.3070 C.3   123  ASP123      0.1410
    213  CG        22.0980   48.5390    6.1550 C.2   123  ASP123      0.3668
    214  OD1       21.8090   48.9330    5.0020 O.co2 123  ASP123     -0.2456
    215  OD2       22.7660   47.5050    6.4070 O.co2 123  ASP123     -0.2456
@<TRIPOS>BOND
     1   179   180    1
     2   179   178    1
     3   178   177    1
     4   183   184    2
     5   183   182    1
     6   177   176    1
     7   182   181    1
     8   182   185    1
     9   176   173    1
    10   166   165    2
    11   173   174    1
    12   173   172    1
    13   187   189   ar
    14   187   186   ar
    15   174   175    2
    16   189   191   ar
    17   185   186    1
    18   186   188   ar
    19   165   172   am
    20   165   164    1
    21   106   107    1
    22   106   103    1
    23   156   153    1
    24   156   157    1
    25   105   104    2
    26   191   190   ar
    27   153   154    1
    28   153   152    1
    29   107   108    1
    30   154   155    2
    31   188   190   ar
    32   163   164    1
    33   158   157    1
    34   158   159    1
    35   103   104    1
    36   103   102    1
    37   104   109   am
    38   164   167    1
    39   161   160    1
    40   167   168    1
    41   115   117   ar
    42   115   114   ar
    43   117   119   ar
    44   109   110    1
    45   110   111    1
    46   110   113    1
    47   108   102    1
    48   159   160    2
    49   112   111    2
    50   160   162    1
    51   102    96   am
    52   192   193    1
    53   111   121   am
    54   170   169   ar
    55   113   114    1
    56   114   116   ar
    57   168   169    1
    58   119   120    1
    59   119   118   ar
    60   193   196    1
    61   193   194    1
    62   169   171   ar
    63    96    97    2
    64    96    95    1
    65   121   122    1
    66   196   197    1
    67   214   213   ar
    68   116   118   ar
    69   123   122    1
    70   123   124    2
    71    71    70    1
    72    71    73    1
    73    66    67    1
    74   194   195    2
    75   198   197    1
    76   122   125    1
    77    95    94    1
    78    95    98    1
    79    69    68    2
    80   197   199    1
    81    70    67    1
    82    70    72    1
    83   213   215   ar
    84   213   212    1
    85   200   201    1
    86    67    68    1
    87   208   209    1
    88   209   212    1
    89   209   210    1
    90   125   126    1
    91    98    99    1
    92   201   202    1
    93   201   204    1
    94   126   128   ar
    95   126   127   ar
    96   128   130   ar
    97   205   204    1
    98   205   207    1
    99   202   203    2
   100   101    99   am
   101   127   129   ar
   102   130   131   ar
   103   210   211    2
   104    99   100    2
   105   204   206    1
   106   129   131   ar
   107   131   132    1
   108    92    89    1
   109    92    93    1
   110    89    90    1
   111    89    88    1
   112    90    91    2
   113    84    83    2
   114    41    40    1
   115    30    28    1
   116    29    28    1
   117    40    42    1
   118    40    39    1
   119    28    27    2
   120    88    83   am
   121    83    82    1
   122    79    78    1
   123    27    26    1
   124    26    25    1
   125    78    80    1
   126    78    75    1
   127    50    48    1
   128    39    36    1
   129    81    82    1
   130    81    76   am
   131   141   139   ar
   132    36    35    1
   133    36    37    1
   134    15    14   ar
   135    15    13   ar
   136    86    85    1
   137    82    85    1
   138    14    12   ar
   139    75    76    1
   140    75    74    1
   141    38    37    2
   142    25    24    1
   143    13    11   ar
   144    76    77    2
   145    12    10   ar
   146   139   140   ar
   147   139   138    1
   148    85    87    1
   149    48    47    1
   150    24    21    1
   151    11    10   ar
   152   138   137    1
   153    10     9    1
   154   136   135    2
   155    47    49    1
   156    47    44    1
   157   133   134    1
   158   137   134    1
   159    23    22    2
   160     9     6    1
   161    22    21    1
   162    22    31   am
   163    21    20    1
   164    57    55    1
   165   134   135    1
   166    34    33    2
   167    32    31    1
   168    32    33    1
   169    43    44    1
   170    46    45    2
   171    44    45    1
   172   146   147    1
   173   146   143    1
   174   149   147   ar
   175   149   151   ar
   176    56    55    1
   177    20    18   am
   178    55    52    1
   179   147   148   ar
   180     6     5    1
   181     6     7    1
   182   142   143    1
   183   145   144    2
   184    65    63   am
   185   151   150   ar
   186     5     3   am
   187     8     7    2
   188   143   144    1
   189     7    16   am
   190    19    18    2
   191    18    17    1
   192   148   150   ar
   193    63    64    2
   194    63    62    1
   195    52    51    1
   196    52    53    1
   197    16    17    1
   198     3     2    1
   199     3     4    2
   200     2     1    1
   201    62    59    1
   202    53    54    2
   203    59    60    1
   204    59    58    1
   205    60    61    2
