@<TRIPOS>MOLECULE
tmp/1q9sA00.pdb
 187 188 0 0 0
SMALL
GASTEIGER

@<TRIPOS>ATOM
      1  N         19.6470   36.3980   24.2390 N.3    13  VAL13      -0.1231
      2  CA        20.8560   36.8110   23.5470 C.3    13  VAL13       0.1692
      3  C         21.9530   35.7870   23.7710 C.2    13  VAL13       0.2592
      4  O         22.3700   35.5600   24.9040 O.2    13  VAL13      -0.2718
      5  CB        21.2690   38.2130   24.0290 C.3    13  VAL13       0.0266
      6  CG1       22.5530   38.6600   23.3570 C.3    13  VAL13       0.0020
      7  CG2       20.1480   39.1970   23.7010 C.3    13  VAL13       0.0020
      8  N         22.4140   35.1640   22.6900 N.am   14  VAL14      -0.1966
      9  CA        23.4340   34.1210   22.7630 C.3    14  VAL14       0.1727
     10  C         24.7030   34.4550   21.9630 C.2    14  VAL14       0.2616
     11  O         24.7280   35.4090   21.1860 O.2    14  VAL14      -0.2715
     12  CB        22.8750   32.7590   22.2230 C.3    14  VAL14       0.0290
     13  CG1       21.5660   32.3560   22.9780 C.3    14  VAL14       0.0023
     14  CG2       22.6150   32.8760   20.7130 C.3    14  VAL14       0.0023
     15  N         25.7460   33.6450   22.1460 N.am   15  ARG15      -0.1963
     16  CA        27.0130   33.8440   21.4390 C.3    15  ARG15       0.1729
     17  C         26.9380   33.6110   19.9280 C.2    15  ARG15       0.2617
     18  O         26.2840   32.6750   19.4550 O.2    15  ARG15      -0.2715
     19  CB        28.0820   32.9190   22.0220 C.3    15  ARG15       0.0348
     20  CG        28.5220   33.2890   23.4120 C.3    15  ARG15       0.0492
     21  CD        29.4380   34.5040   23.3910 C.3    15  ARG15       0.2205
     22  NE        29.6710   35.0530   24.7330 N.pl3  15  ARG15      -0.0865
     23  CZ        30.5420   36.0260   24.9900 C.cat  15  ARG15       0.5346
     24  NH1       31.2640   36.5460   24.0080 N.pl3  15  ARG15       0.1354
     25  NH2       30.6760   36.5030   26.2170 N.pl3  15  ARG15       0.1354
     26  N         27.6270   34.4710   19.1830 N.am   16  GLY16      -0.1940
     27  CA        27.6830   34.3670   17.7290 C.3    16  GLY16       0.2014
     28  C         29.0980   33.9160   17.3580 C.2    16  GLY16       0.2639
     29  O         29.7460   33.2140   18.1160 O.2    16  GLY16      -0.2714
     30  N         29.6010   34.3100   16.2040 N.am   17  PHE17      -0.1959
     31  CA        30.9440   33.9050   15.8030 C.3    17  PHE17       0.1771
     32  C         32.0230   34.7870   16.4010 C.2    17  PHE17       0.2620
     33  O         33.1970   34.5200   16.2230 O.2    17  PHE17      -0.2715
     34  CB        31.0650   33.9660   14.2900 C.3    17  PHE17       0.0574
     35  CG        30.4060   32.8220   13.5850 C.ar   17  PHE17      -0.0200
     36  CD1       31.0580   31.5750   13.4880 C.ar   17  PHE17      -0.0042
     37  CD2       29.1390   32.9690   13.0240 C.ar   17  PHE17      -0.0042
     38  CE1       30.4520   30.4930   12.8350 C.ar   17  PHE17      -0.0003
     39  CE2       28.5160   31.9060   12.3780 C.ar   17  PHE17      -0.0003
     40  CZ        29.1650   30.6580   12.2750 C.ar   17  PHE17      -0.0000
     41  N         31.6220   35.8500   17.0900 N.am   18  GLY18      -0.1940
     42  CA        32.5940   36.7660   17.6540 C.3    18  GLY18       0.2014
     43  C         33.1770   37.6090   16.5280 C.2    18  GLY18       0.2639
     44  O         34.3920   37.8160   16.4630 O.2    18  GLY18      -0.2714
     45  N         32.3180   38.1050   15.6370 N.am   19  ARG19      -0.1963
     46  CA        32.7910   38.8960   14.5110 C.3    19  ARG19       0.1729
     47  C         32.3480   40.3470   14.5060 C.2    19  ARG19       0.2617
     48  O         33.0680   41.2060   14.0030 O.2    19  ARG19      -0.2715
     49  CB        32.3300   38.2810   13.1790 C.3    19  ARG19       0.0348
     50  CG        32.9380   36.9260   12.7820 C.3    19  ARG19       0.0492
     51  CD        32.1430   36.3500   11.5600 C.3    19  ARG19       0.2205
     52  NE        32.5920   35.0290   11.1350 N.pl3  19  ARG19      -0.0865
     53  CZ        31.8260   34.0910   10.5680 C.cat  19  ARG19       0.5346
     54  NH1       30.5310   34.2860   10.3430 N.pl3  19  ARG19       0.1354
     55  NH2       32.3770   32.9480   10.1880 N.pl3  19  ARG19       0.1354
     56  N         31.1710   40.6220   15.0570 N.am   20  GLY20      -0.1940
     57  CA        30.6390   41.9730   14.9940 C.3    20  GLY20       0.2014
     58  C         31.4770   43.0920   15.5600 C.2    20  GLY20       0.2640
     59  O         31.8900   44.0300   14.8690 O.2    20  GLY20      -0.2714
     60  N         31.6770   43.0150   16.8580 N.am   21  SER21      -0.1935
     61  CA        32.4790   43.9860   17.5500 C.3    21  SER21       0.2055
     62  C         33.9260   43.8630   17.0260 C.2    21  SER21       0.2642
     63  O         34.4960   44.8350   16.5140 O.2    21  SER21      -0.2714
     64  CB        32.4160   43.6890   19.0420 C.3    21  SER21       0.2130
     65  OG        32.8830   44.7880   19.7840 O.3    21  SER21      -0.2179
     66  N         34.4790   42.6510   17.1060 N.am   22  LYS22      -0.1977
     67  CA        35.8540   42.3460   16.6960 C.3    22  LYS22       0.1596
     68  C         36.2980   42.7220   15.2730 C.2    22  LYS22       0.2287
     69  O         37.3780   43.2800   15.0820 O.2    22  LYS22      -0.2864
     70  CB        36.1420   40.8490   16.9110 C.3    22  LYS22       0.0298
     71  CG        37.4070   40.5740   17.7070 C.3    22  LYS22       0.0038
     72  CD        37.9240   39.1750   17.4680 C.3    22  LYS22       0.0206
     73  CE        39.3220   38.9880   18.0770 C.3    22  LYS22       0.1093
     74  NZ        39.9550   37.6990   17.6480 N.3    22  LYS22      -0.1314
     75  N         28.6840   45.4790   17.1610 N.3    27  PRO27      -0.2102
     76  CA        28.1290   44.2680   17.7940 C.3    27  PRO27       0.1504
     77  C         26.6890   43.9890   17.4030 C.2    27  PRO27       0.2576
     78  O         25.9330   44.9280   17.1220 O.2    27  PRO27      -0.2718
     79  CB        28.2380   44.5650   19.2830 C.3    27  PRO27       0.0282
     80  CG        28.0400   46.0650   19.3180 C.3    27  PRO27       0.0208
     81  CD        28.8790   46.5590   18.1390 C.3    27  PRO27       0.0893
     82  N         26.3170   42.7070   17.3600 N.am   28  THR28      -0.1939
     83  CA        24.9420   42.3370   17.0500 C.3    28  THR28       0.2028
     84  C         24.4970   41.3540   18.1000 C.2    28  THR28       0.2642
     85  O         25.2430   40.4710   18.4620 O.2    28  THR28      -0.2714
     86  CB        24.7960   41.6740   15.6450 C.3    28  THR28       0.1808
     87  OG1       25.6520   40.5150   15.5420 O.3    28  THR28      -0.2208
     88  CG2       25.1480   42.6630   14.5690 C.3    28  THR28       0.0379
     89  N         23.2850   41.5060   18.6030 N.am   29  ALA29      -0.1963
     90  CA        22.7680   40.5800   19.6050 C.3    29  ALA29       0.1728
     91  C         22.1540   39.4220   18.8120 C.2    29  ALA29       0.2616
     92  O         21.2800   39.6480   17.9840 O.2    29  ALA29      -0.2715
     93  CB        21.7160   41.2930   20.4690 C.3    29  ALA29       0.0334
     94  N         22.6020   38.1910   19.0510 N.am   30  ASN30      -0.1972
     95  CA        22.0970   37.0450   18.2770 C.3    30  ASN30       0.1688
     96  C         21.0450   36.2000   18.9670 C.2    30  ASN30       0.2292
     97  O         21.1550   35.9110   20.1670 O.2    30  ASN30      -0.2864
     98  CB        23.2500   36.1080   17.8760 C.3    30  ASN30       0.1181
     99  CG        24.2360   36.7670   16.9290 C.2    30  ASN30       0.2629
    100  OD1       24.4000   37.9860   16.9460 O.2    30  ASN30      -0.2716
    101  ND2       24.9050   35.9600   16.0990 N.am   30  ASN30      -0.0877
    102  N         20.6440   41.4820   15.8820 N.3    81  THR81      -0.1203
    103  CA        20.1800   42.8290   16.0730 C.3    81  THR81       0.1994
    104  C         21.2700   43.7550   16.5800 C.2    81  THR81       0.2618
    105  O         21.9590   43.4670   17.5600 O.2    81  THR81      -0.2717
    106  CB        19.0320   42.8520   17.0630 C.3    81  THR81       0.1784
    107  OG1       17.9600   42.0790   16.5430 O.3    81  THR81      -0.2211
    108  CG2       18.5400   44.2680   17.2730 C.3    81  THR81       0.0376
    109  N         21.4510   44.8630   15.8800 N.am   82  HIS82      -0.1961
    110  CA        22.4090   45.8490   16.3360 C.3    82  HIS82       0.1787
    111  C         21.5590   47.0270   16.8020 C.2    82  HIS82       0.2620
    112  O         20.8070   47.6130   16.0170 O.2    82  HIS82      -0.2715
    113  CB        23.3510   46.3140   15.2420 C.3    82  HIS82       0.0785
    114  CG        24.1910   47.4780   15.6700 C.ar   82  HIS82       0.0821
    115  ND1       25.0530   47.4060   16.7460 N.ar   82  HIS82      -0.2267
    116  CD2       24.1720   48.7750   15.2910 C.ar   82  HIS82       0.1154
    117  CE1       25.5140   48.6120   17.0190 C.ar   82  HIS82       0.1986
    118  NE2       24.9920   49.4620   16.1540 N.ar   82  HIS82      -0.2212
    119  N         21.6610   47.3430   18.0870 N.am   83  ILE83      -0.1977
    120  CA        20.8940   48.4280   18.6730 C.3    83  ILE83       0.1596
    121  C         21.6660   49.7270   18.6320 C.2    83  ILE83       0.2287
    122  O         22.8240   49.7750   19.0340 O.2    83  ILE83      -0.2864
    123  CB        20.5680   48.1170   20.1230 C.3    83  ILE83       0.0276
    124  CG1       20.0740   46.6710   20.2350 C.3    83  ILE83       0.0022
    125  CG2       19.4980   49.0980   20.6420 C.3    83  ILE83       0.0022
    126  CD1       19.8980   46.2060   21.6660 C.3    83  ILE83       0.0001
    127  N         22.4710   52.1820   20.3840 N.3    85  HIS85      -0.1241
    128  CA        22.4920   52.6370   21.7520 C.3    85  HIS85       0.1621
    129  C         23.7940   52.1620   22.3660 C.2    85  HIS85       0.2264
    130  O         24.3000   51.0940   22.0310 O.2    85  HIS85      -0.2867
    131  CB        21.3170   52.0370   22.5170 C.3    85  HIS85       0.0745
    132  CG        21.2920   52.4310   23.9520 C.ar   85  HIS85       0.0817
    133  ND1       20.8190   53.6540   24.3770 N.ar   85  HIS85      -0.2268
    134  CD2       21.7550   51.8000   25.0560 C.ar   85  HIS85       0.1154
    135  CE1       20.9930   53.7600   25.6830 C.ar   85  HIS85       0.1986
    136  NE2       21.5610   52.6480   26.1200 N.ar   85  HIS85      -0.2212
    137  N         25.6600   50.6710   25.4210 N.3    87  PHE87      -0.1241
    138  CA        25.4310   49.9790   26.6880 C.3    87  PHE87       0.1605
    139  C         26.7590   49.9270   27.4070 C.2    87  PHE87       0.2264
    140  O         27.8170   49.9160   26.7670 O.2    87  PHE87      -0.2867
    141  CB        24.9360   48.5380   26.4790 C.3    87  PHE87       0.0534
    142  CG        23.5980   48.4350   25.8070 C.ar   87  PHE87      -0.0203
    143  CD1       23.4820   48.5850   24.4400 C.ar   87  PHE87      -0.0042
    144  CD2       22.4530   48.1740   26.5510 C.ar   87  PHE87      -0.0042
    145  CE1       22.2590   48.4770   23.8170 C.ar   87  PHE87      -0.0003
    146  CE2       21.2180   48.0640   25.9370 C.ar   87  PHE87      -0.0003
    147  CZ        21.1150   48.2150   24.5630 C.ar   87  PHE87      -0.0000
    148  N         27.5590   47.4420   29.6910 N.3    89  GLU89      -0.1231
    149  CA        27.9840   46.0570   29.7510 C.3    89  GLU89       0.1699
    150  C         27.2880   45.1900   28.7050 C.2    89  GLU89       0.2592
    151  O         26.2580   45.5690   28.1440 O.2    89  GLU89      -0.2718
    152  CB        27.7150   45.4970   31.1500 C.3    89  GLU89       0.0402
    153  CG        28.6310   46.0440   32.2450 C.3    89  GLU89       0.1161
    154  CD        28.0470   45.8350   33.6500 C.2    89  GLU89       0.3649
    155  OE1       27.0520   46.5320   33.9840 O.co2  89  GLU89      -0.2457
    156  OE2       28.5710   44.9740   34.4150 O.co2  89  GLU89      -0.2457
    157  N         27.8740   44.0290   28.4310 N.am   90  ASP90      -0.1960
    158  CA        27.2910   43.1030   27.4830 C.3    90  ASP90       0.1840
    159  C         26.0260   42.5140   28.1060 C.2    90  ASP90       0.2622
    160  O         25.8920   42.5020   29.3300 O.2    90  ASP90      -0.2715
    161  CB        28.3160   42.0250   27.1230 C.3    90  ASP90       0.1450
    162  CG        29.3340   42.5290   26.0990 C.2    90  ASP90       0.3671
    163  OD1       29.0060   43.4900   25.3540 O.co2  90  ASP90      -0.2456
    164  OD2       30.4430   41.9630   26.0190 O.co2  90  ASP90      -0.2456
    165  N         25.0830   42.0700   27.2800 N.am   91  PHE91      -0.1960
    166  CA        23.8440   41.5100   27.8010 C.3    91  PHE91       0.1771
    167  C         23.5380   40.0670   27.3760 C.2    91  PHE91       0.2619
    168  O         22.3710   39.6980   27.1510 O.2    91  PHE91      -0.2715
    169  CB        22.6380   42.4270   27.4870 C.3    91  PHE91       0.0574
    170  CG        22.6280   43.0030   26.0860 C.ar   91  PHE91      -0.0200
    171  CD1       23.3770   44.1380   25.7760 C.ar   91  PHE91      -0.0042
    172  CD2       21.8410   42.4320   25.0870 C.ar   91  PHE91      -0.0042
    173  CE1       23.3450   44.6960   24.5030 C.ar   91  PHE91      -0.0003
    174  CE2       21.7970   42.9730   23.8200 C.ar   91  PHE91      -0.0003
    175  CZ        22.5590   44.1210   23.5230 C.ar   91  PHE91      -0.0000
    176  N         24.5860   39.2510   27.2810 N.am   92  TYR92      -0.1974
    177  CA        24.4140   37.8400   26.9480 C.3    92  TYR92       0.1639
    178  C         23.5010   37.2100   27.9910 C.2    92  TYR92       0.2290
    179  O         23.6430   37.4840   29.1870 O.2    92  TYR92      -0.2864
    180  CB        25.7570   37.1240   26.9630 C.3    92  TYR92       0.0560
    181  CG        26.6200   37.4460   25.7660 C.ar   92  TYR92      -0.0198
    182  CD1       26.2930   36.9600   24.4870 C.ar   92  TYR92      -0.0009
    183  CD2       27.7510   38.2330   25.8980 C.ar   92  TYR92      -0.0009
    184  CE1       27.0820   37.2580   23.3760 C.ar   92  TYR92       0.0417
    185  CE2       28.5380   38.5390   24.7990 C.ar   92  TYR92       0.0417
    186  CZ        28.2010   38.0500   23.5420 C.ar   92  TYR92       0.1957
    187  OH        28.9900   38.3610   22.4650 O.3    92  TYR92      -0.2866
@<TRIPOS>BOND
     1    55    53    1
     2    54    53    1
     3    53    52    2
     4    52    51    1
     5    51    50    1
     6    40    39   ar
     7    40    38   ar
     8    39    37   ar
     9    50    49    1
    10    38    36   ar
    11    37    35   ar
    12    49    46    1
    13    36    35   ar
    14    35    34    1
    15    48    47    2
    16    34    31    1
    17    47    46    1
    18    47    56   am
    19    46    45    1
    20    88    86    1
    21    59    58    2
    22    57    56    1
    23    57    58    1
    24    69    68    2
    25   113   114    1
    26   113   110    1
    27    68    67    1
    28   116   114   ar
    29   116   118   ar
    30    87    86    1
    31    58    60   am
    32    45    43   am
    33    86    83    1
    34   114   115   ar
    35    31    30    1
    36    31    32    1
    37   109   110    1
    38   109   104   am
    39   102   103    1
    40   112   111    2
    41   103   104    1
    42   103   106    1
    43   101    99   am
    44   118   117   ar
    45    30    28   am
    46    33    32    2
    47   110   111    1
    48    32    41   am
    49    44    43    2
    50    63    62    2
    51    43    42    1
    52   107   106    1
    53   104   105    2
    54    67    70    1
    55    67    66    1
    56   115   117   ar
    57   111   119   am
    58    60    61    1
    59    70    71    1
    60    99   100    2
    61    99    98    1
    62    62    66   am
    63    62    61    1
    64    83    82    1
    65    83    84    1
    66   106   108    1
    67    41    42    1
    68    78    77    2
    69    75    76    1
    70    75    81    1
    71    28    27    1
    72    28    29    2
    73    82    77   am
    74    77    76    1
    75    72    71    1
    76    72    73    1
    77    61    64    1
    78    74    73    1
    79    27    26    1
    80    76    79    1
    81    98    95    1
    82    92    91    2
    83   119   120    1
    84    84    85    2
    85    84    89   am
    86    81    80    1
    87    95    96    1
    88    95    94    1
    89    89    90    1
    90   121   120    1
    91   121   122    2
    92   120   123    1
    93    91    94   am
    94    91    90    1
    95    96    97    2
    96    64    65    1
    97    26    17   am
    98    79    80    1
    99    18    17    2
   100    90    93    1
   101    17    16    1
   102   123   124    1
   103   123   125    1
   104   124   126    1
   105   127   128    1
   106    14    12    1
   107    11    10    2
   108    16    19    1
   109    16    15    1
   110   128   129    1
   111   128   131    1
   112    10    15   am
   113    10     9    1
   114    19    20    1
   115   130   129    2
   116    12     9    1
   117    12    13    1
   118   187   186    1
   119   131   132    1
   120     8     9    1
   121     8     3   am
   122     6     5    1
   123   184   186   ar
   124   184   182   ar
   125    21    20    1
   126    21    22    1
   127   175   174   ar
   128   175   173   ar
   129   186   185   ar
   130     2     3    1
   131     2     5    1
   132     2     1    1
   133     7     5    1
   134     3     4    2
   135   145   143   ar
   136   145   147   ar
   137   174   172   ar
   138   132   133   ar
   139   132   134   ar
   140    24    23    1
   141   133   135   ar
   142   143   142   ar
   143   182   181   ar
   144   173   171   ar
   145   147   146   ar
   146    22    23    2
   147   185   183   ar
   148    23    25    1
   149   134   136   ar
   150   172   170   ar
   151   163   162   ar
   152   137   138    1
   153   135   136   ar
   154   181   183   ar
   155   181   180    1
   156   171   170   ar
   157   142   141    1
   158   142   144   ar
   159   146   144   ar
   160   164   162   ar
   161   170   169    1
   162   162   161    1
   163   141   138    1
   164   138   139    1
   165   140   139    2
   166   177   180    1
   167   177   176    1
   168   177   178    1
   169   161   158    1
   170   168   167    2
   171   165   166    1
   172   165   159   am
   173   176   167   am
   174   167   166    1
   175   158   159    1
   176   158   157    1
   177   169   166    1
   178   178   179    2
   179   159   160    2
   180   151   150    2
   181   157   150   am
   182   150   149    1
   183   148   149    1
   184   149   152    1
   185   152   153    1
   186   153   154    1
   187   154   155   ar
   188   154   156   ar
