@<TRIPOS>MOLECULE
tmp/1q9xK02.pdb
 91 87 0 0 0
SMALL
GASTEIGER

@<TRIPOS>ATOM
      1  N         91.7200  124.9190  136.8940 N.3   619  TYR619     -0.1241
      2  CA        93.0690  125.2570  136.4950 C.3   619  TYR619      0.1605
      3  C         93.1930  125.4400  134.9920 C.2   619  TYR619      0.2264
      4  O         92.5160  124.7610  134.1830 O.2   619  TYR619     -0.2867
      5  CB        94.0240  124.1390  136.9640 C.3   619  TYR619      0.0534
      6  CG        95.4950  124.3220  136.6470 C.ar  619  TYR619     -0.0201
      7  CD1       96.1070  123.5540  135.6640 C.ar  619  TYR619     -0.0009
      8  CD2       96.2850  125.2370  137.3670 C.ar  619  TYR619     -0.0009
      9  CE1       97.4590  123.6820  135.3920 C.ar  619  TYR619      0.0417
     10  CE2       97.6290  125.3880  137.0900 C.ar  619  TYR619      0.0417
     11  CZ        98.2170  124.6150  136.1000 C.ar  619  TYR619      0.1957
     12  OH        99.5640  124.7640  135.8100 O.3   619  TYR619     -0.2866
     13  N         96.4910  126.7720  131.9740 N.3   621  ASP621     -0.1225
     14  CA        97.8620  127.2230  131.7340 C.3   621  ASP621      0.1805
     15  C         98.0190  127.4490  130.2440 C.2   621  ASP621      0.2598
     16  O         98.0870  126.4880  129.4620 O.2   621  ASP621     -0.2718
     17  CB        98.8620  126.1860  132.2450 C.3   621  ASP621      0.1424
     18  CG       100.2890  126.7120  132.3080 C.2   621  ASP621      0.3668
     19  OD1      100.5990  127.7550  131.6950 O.co2 621  ASP621     -0.2456
     20  OD2      101.1830  126.1220  132.9560 O.co2 621  ASP621     -0.2456
     21  N         98.0400  128.7230  129.8480 N.am  622  THR622     -0.1939
     22  CA        98.2260  129.1230  128.4520 C.3   622  THR622      0.2028
     23  C         97.1440  128.6560  127.5280 C.2   622  THR622      0.2642
     24  O         96.3480  129.4670  127.0880 O.2   622  THR622     -0.2714
     25  CB        99.5920  128.6860  127.9550 C.3   622  THR622      0.1808
     26  OG1      100.5490  129.2470  128.8570 O.3   622  THR622     -0.2208
     27  CG2       99.9460  129.2980  126.5230 C.3   622  THR622      0.0379
     28  N         97.1120  127.3480  127.2570 N.am  623  ASP623     -0.1957
     29  CA        96.2750  126.7770  126.1860 C.3   623  ASP623      0.1840
     30  C         95.3710  125.5870  126.5830 C.2   623  ASP623      0.2622
     31  O         94.8220  124.9200  125.7130 O.2   623  ASP623     -0.2715
     32  CB        97.1760  126.3590  125.0320 C.3   623  ASP623      0.1450
     33  CG        98.0530  125.1860  125.3900 C.2   623  ASP623      0.3671
     34  OD1       98.8120  124.7290  124.5040 O.co2 623  ASP623     -0.2456
     35  OD2       98.0480  124.6430  126.5370 O.co2 623  ASP623     -0.2456
     36  N         95.2280  125.3220  127.8790 N.am  624  SER624     -0.1950
     37  CA        94.3840  124.2380  128.3600 C.3   624  SER624      0.1924
     38  C         93.5870  124.6150  129.5780 C.2   624  SER624      0.2314
     39  O         94.0390  125.4480  130.3680 O.2   624  SER624     -0.2863
     40  CB        95.2440  123.0770  128.7680 C.3   624  SER624      0.2116
     41  OG        95.5210  122.3070  127.6370 O.3   624  SER624     -0.2180
     42  N         91.2970  122.6720  132.9100 N.3   626  TYR626     -0.1241
     43  CA        91.1020  121.4250  133.6270 C.3   626  TYR626      0.1605
     44  C         89.8370  121.5260  134.4160 C.2   626  TYR626      0.2264
     45  O         89.6600  122.4330  135.2550 O.2   626  TYR626     -0.2867
     46  CB        92.3030  121.1030  134.5060 C.3   626  TYR626      0.0534
     47  CG        93.4780  120.7130  133.6500 C.ar  626  TYR626     -0.0201
     48  CD1       94.2200  121.6840  133.0120 C.ar  626  TYR626     -0.0009
     49  CD2       93.8150  119.3790  133.4240 C.ar  626  TYR626     -0.0009
     50  CE1       95.2640  121.3670  132.2010 C.ar  626  TYR626      0.0417
     51  CE2       94.8910  119.0580  132.6010 C.ar  626  TYR626      0.0417
     52  CZ        95.6030  120.0790  132.0060 C.ar  626  TYR626      0.1957
     53  OH        96.6730  119.8710  131.1750 O.3   626  TYR626     -0.2866
     54  N        101.5370  124.5460  137.6250 N.3   706  LYS706     -0.1245
     55  CA       102.4380  123.7180  136.8210 C.3   706  LYS706      0.1561
     56  C        102.7770  122.4180  137.5270 C.2   706  LYS706      0.2260
     57  O        103.7420  121.7360  137.1790 O.2   706  LYS706     -0.2867
     58  CB       103.7210  124.4930  136.4510 C.3   706  LYS706      0.0271
     59  CG       103.4360  125.7170  135.6020 C.3   706  LYS706      0.0035
     60  CD       104.6490  126.2520  134.8910 C.3   706  LYS706      0.0206
     61  CE       104.3740  127.5920  134.2330 C.3   706  LYS706      0.1093
     62  NZ       103.8620  127.4690  132.8330 N.3   706  LYS706     -0.1314
     63  N        101.0030  118.8900  138.8910 N.3   708  TYR708     -0.1241
     64  CA        99.8490  118.0370  139.0380 C.3   708  TYR708      0.1605
     65  C         99.9830  116.6490  138.4480 C.2   708  TYR708      0.2264
     66  O        100.8310  116.4040  137.5950 O.2   708  TYR708     -0.2867
     67  CB        98.6310  118.7470  138.4680 C.3   708  TYR708      0.0534
     68  CG        98.7070  119.0820  136.9950 C.ar  708  TYR708     -0.0201
     69  CD1       99.3200  120.2600  136.5550 C.ar  708  TYR708     -0.0009
     70  CD2       98.1560  118.2360  136.0490 C.ar  708  TYR708     -0.0009
     71  CE1       99.3810  120.5770  135.2170 C.ar  708  TYR708      0.0417
     72  CE2       98.1970  118.5480  134.7320 C.ar  708  TYR708      0.0417
     73  CZ        98.8120  119.7190  134.3140 C.ar  708  TYR708      0.1957
     74  OH        98.8490  120.0170  132.9770 O.3   708  TYR708     -0.2866
     75  N         99.3400  110.7550  134.0860 N.3   726  LYS726     -0.1245
     76  CA        99.7540  111.9860  133.4460 C.3   726  LYS726      0.1561
     77  C        100.3380  112.8750  134.5480 C.2   726  LYS726      0.2260
     78  O         99.6100  113.4570  135.3570 O.2   726  LYS726     -0.2867
     79  CB        98.5780  112.6300  132.7020 C.3   726  LYS726      0.0271
     80  CG        98.9880  113.6040  131.6160 C.3   726  LYS726      0.0035
     81  CD        97.9080  114.6740  131.3870 C.3   726  LYS726      0.0206
     82  CE        98.4860  116.0100  130.8070 C.3   726  LYS726      0.1093
     83  NZ        99.4010  115.7800  129.6350 N.3   726  LYS726     -0.1314
     84  N        102.7660  116.0280  135.5550 N.3   728  MET728     -0.1245
     85  CA       103.3390  117.2410  135.0020 C.3   728  MET728      0.1570
     86  C        104.0550  117.9890  136.1100 C.2   728  MET728      0.2261
     87  O        103.4830  118.2380  137.1730 O.2   728  MET728     -0.2867
     88  CB       102.2430  118.1400  134.3920 C.3   728  MET728      0.0387
     89  CG       101.3540  117.5010  133.3250 C.3   728  MET728      0.0595
     90  SD       102.1710  116.7760  131.8180 S.3   728  MET728     -0.1393
     91  CE       103.1950  118.0930  131.1590 C.3   728  MET728      0.0692
@<TRIPOS>BOND
     1    34    33   ar
     2    32    33    1
     3    32    29    1
     4    33    35   ar
     5    31    30    2
     6    29    30    1
     7    29    28    1
     8    27    25    1
     9    30    36   am
    10    24    23    2
    11    28    23   am
    12    23    22    1
    13    41    40    1
    14    36    37    1
    15    25    22    1
    16    25    26    1
    17    37    40    1
    18    37    38    1
    19    22    21    1
    20    16    15    2
    21    38    39    2
    22    83    82    1
    23    21    15   am
    24    15    14    1
    25    82    81    1
    26    91    90    1
    27    53    52    1
    28    81    80    1
    29    80    79    1
    30    19    18   ar
    31    14    13    1
    32    14    17    1
    33    90    89    1
    34    52    50   ar
    35    52    51   ar
    36    50    48   ar
    37    17    18    1
    38    18    20   ar
    39    51    49   ar
    40    79    76    1
    41    62    61    1
    42    42    43    1
    43    74    73    1
    44    48    47   ar
    45    89    88    1
    46    49    47   ar
    47    76    75    1
    48    76    77    1
    49    43    44    1
    50    43    46    1
    51    47    46    1
    52     4     3    2
    53    61    60    1
    54    73    72   ar
    55    73    71   ar
    56    88    85    1
    57    44    45    2
    58    77    78    2
    59    72    70   ar
    60    60    59    1
    61     3     2    1
    62    85    84    1
    63    85    86    1
    64    71    69   ar
    65     9     7   ar
    66     9    11   ar
    67    59    58    1
    68     7     6   ar
    69    12    11    1
    70    70    68   ar
    71    11    10   ar
    72    86    87    2
    73    58    55    1
    74     2     1    1
    75     2     5    1
    76    69    68   ar
    77     6     5    1
    78     6     8   ar
    79    55    56    1
    80    55    54    1
    81    68    67    1
    82    10     8   ar
    83    57    56    2
    84    66    65    2
    85    65    64    1
    86    67    64    1
    87    63    64    1
