@<TRIPOS>MOLECULE
tmp/1qa7B00.pdb
 94 93 0 0 0
SMALL
GASTEIGER

@<TRIPOS>ATOM
      1  N         10.6040   13.5500   49.5980 N.3    27  TRP27      -0.1227
      2  CA        11.7880   12.7150   49.6690 C.3    27  TRP27       0.1737
      3  C         11.3960   11.3120   49.3080 C.2    27  TRP27       0.2595
      4  O         10.3600   10.8400   49.7140 O.2    27  TRP27      -0.2718
      5  CB        12.4210   12.7910   51.0530 C.3    27  TRP27       0.0564
      6  CG        12.9880   14.1460   51.3750 C.ar   27  TRP27       0.0003
      7  CD1       12.4630   15.0700   52.2230 C.ar   27  TRP27       0.0946
      8  CD2       14.1570   14.7520   50.7980 C.ar   27  TRP27       0.0152
      9  NE1       13.2130   16.2170   52.1970 N.ar   27  TRP27      -0.2442
     10  CE2       14.2790   16.0320   51.3530 C.ar   27  TRP27       0.0810
     11  CE3       15.1270   14.3150   49.8970 C.ar   27  TRP27       0.0012
     12  CZ2       15.3390   16.8800   51.0440 C.ar   27  TRP27       0.0191
     13  CZ3       16.1530   15.1630   49.5710 C.ar   27  TRP27       0.0001
     14  CH2       16.2580   16.4300   50.1340 C.ar   27  TRP27       0.0015
     15  N         12.1510   10.6700   48.4350 N.am   28  VAL28      -0.1966
     16  CA        11.6740    9.4070   47.9000 C.3    28  VAL28       0.1727
     17  C         12.4690    8.2080   48.3850 C.2    28  VAL28       0.2616
     18  O         11.8900    7.1910   48.8070 O.2    28  VAL28      -0.2715
     19  CB        11.5910    9.4650   46.3370 C.3    28  VAL28       0.0290
     20  CG1       11.1080    8.1660   45.7470 C.3    28  VAL28       0.0023
     21  CG2       10.7310   10.6270   45.9140 C.3    28  VAL28       0.0023
     22  N         13.7940    8.3280   48.2870 N.am   29  MET29      -0.1977
     23  CA        14.7320    7.2660   48.6230 C.3    29  MET29       0.1605
     24  C         16.1540    7.7770   48.7160 C.2    29  MET29       0.2287
     25  O         16.3760    8.9530   48.9790 O.2    29  MET29      -0.2864
     26  CB        14.6160    6.0860   47.6340 C.3    29  MET29       0.0413
     27  CG        15.0270    6.3960   46.1490 C.3    29  MET29       0.0598
     28  SD        14.7180    5.0060   45.0830 S.3    29  MET29      -0.1393
     29  CE        13.0220    5.1270   44.9500 C.3    29  MET29       0.0692
     30  N         12.9040    3.7550   39.7270 N.3    44  HIS44      -0.1241
     31  CA        11.5760    3.9670   40.3020 C.3    44  HIS44       0.1621
     32  C         11.5010    5.1480   41.2370 C.2    44  HIS44       0.2264
     33  O         10.4340    5.5430   41.6690 O.2    44  HIS44      -0.2867
     34  CB        10.9710    2.6940   40.9330 C.3    44  HIS44       0.0745
     35  CG        11.6050    2.2700   42.2230 C.ar   44  HIS44       0.0817
     36  ND1       12.8350    1.6440   42.2650 N.ar   44  HIS44      -0.2268
     37  CD2       11.0830    2.1490   43.4670 C.ar   44  HIS44       0.1154
     38  CE1       13.0930    1.2600   43.5030 C.ar   44  HIS44       0.1986
     39  NE2       12.0530    1.5700   44.2550 N.ar   44  HIS44      -0.2212
     40  N         16.8170    5.5350   56.3640 N.3   123  VAL123     -0.1231
     41  CA        15.3880    5.7690   56.2150 C.3   123  VAL123      0.1692
     42  C         15.2330    7.2750   56.2800 C.2   123  VAL123      0.2592
     43  O         15.3490    7.8760   57.3330 O.2   123  VAL123     -0.2718
     44  CB        14.5150    5.1050   57.3050 C.3   123  VAL123      0.0266
     45  CG1       13.0410    5.3080   56.9680 C.3   123  VAL123      0.0020
     46  CG2       14.8330    3.6270   57.3970 C.3   123  VAL123      0.0020
     47  N         15.1380    7.8970   55.1200 N.am  124  ASN124     -0.1974
     48  CA        15.0460    9.3300   55.0430 C.3   124  ASN124      0.1688
     49  C         16.0910   10.0950   55.7930 C.2   124  ASN124      0.2292
     50  O         15.7990   11.1000   56.4670 O.2   124  ASN124     -0.2864
     51  CB        13.6590    9.8120   55.3740 C.3   124  ASN124      0.1181
     52  CG        13.0880   10.6440   54.2610 C.2   124  ASN124      0.2629
     53  OD1       13.0310   11.8660   54.3730 O.2   124  ASN124     -0.2716
     54  ND2       12.7520    9.9940   53.1370 N.am  124  ASN124     -0.0877
     55  N         10.6440    1.3710   55.4800 N.3   169  PRO169     -0.2102
     56  CA        10.5770    2.0650   54.2080 C.3   169  PRO169      0.1504
     57  C         11.6570    3.1080   53.9890 C.2   169  PRO169      0.2576
     58  O         12.3250    3.5380   54.9280 O.2   169  PRO169     -0.2718
     59  CB         9.1800    2.6970   54.2080 C.3   169  PRO169      0.0282
     60  CG         8.4610    2.0430   55.3470 C.3   169  PRO169      0.0208
     61  CD         9.5200    1.7380   56.3430 C.3   169  PRO169      0.0893
     62  N         11.8510    3.4750   52.7220 N.am  170  GLY170     -0.1943
     63  CA        12.8470    4.4460   52.3550 C.3   170  GLY170      0.2014
     64  C         14.2510    3.8550   52.2240 C.2   170  GLY170      0.2639
     65  O         15.2120    4.6000   52.0920 O.2   170  GLY170     -0.2714
     66  N         14.3910    2.5330   52.2390 N.am  171  MET171     -0.1963
     67  CA        15.7360    1.9470   52.1610 C.3   171  MET171      0.1736
     68  C         16.2750    1.8470   50.7170 C.2   171  MET171      0.2616
     69  O         17.4470    1.5870   50.4810 O.2   171  MET171     -0.2715
     70  CB        15.7830    0.5780   52.8150 C.3   171  MET171      0.0427
     71  CG        15.5390    0.5910   54.2890 C.3   171  MET171      0.0599
     72  SD        15.9420   -1.0540   54.9240 S.3   171  MET171     -0.1393
     73  CE        15.0400   -2.1080   53.8190 C.3   171  MET171      0.0692
     74  N         15.4030    2.0100   49.7380 N.am  172  CYS172     -0.1968
     75  CA        15.8090    1.8700   48.3400 C.3   172  CYS172      0.1712
     76  C         16.9410    2.8140   48.0100 C.2   172  CYS172      0.2296
     77  O         16.9740    3.9360   48.5050 O.2   172  CYS172     -0.2864
     78  CB        14.6180    2.1180   47.4170 C.3   172  CYS172      0.0983
     79  SG        13.4870    0.7110   47.3090 S.3   172  CYS172     -0.0798
     80  N         19.8940   -1.5540   46.7730 N.3   191  HIS191     -0.1241
     81  CA        18.5500   -1.9480   47.2160 C.3   191  HIS191      0.1621
     82  C         17.3980   -1.3230   46.4650 C.2   191  HIS191      0.2264
     83  O         17.3220   -0.1000   46.3490 O.2   191  HIS191     -0.2867
     84  CB        18.3900   -1.6370   48.6950 C.3   191  HIS191      0.0745
     85  CG        17.1710   -2.2480   49.2700 C.ar  191  HIS191      0.0817
     86  ND1       17.1130   -3.5810   49.6050 N.ar  191  HIS191     -0.2268
     87  CD2       15.9140   -1.7670   49.3870 C.ar  191  HIS191      0.1154
     88  CE1       15.8780   -3.8800   49.9650 C.ar  191  HIS191      0.1986
     89  NE2       15.1310   -2.7970   49.8370 N.ar  191  HIS191     -0.2212
     90  N         13.9610   -3.2190   46.1130 N.3   193  ALA193     -0.1245
     91  CA        12.6310   -3.7570   46.3980 C.3   193  ALA193      0.1562
     92  C         12.6500   -4.7030   47.5810 C.2   193  ALA193      0.2260
     93  O         13.7120   -5.2120   47.9750 O.2   193  ALA193     -0.2867
     94  CB        12.0730   -4.4610   45.1900 C.3   193  ALA193      0.0290
@<TRIPOS>BOND
     1    30    31    1
     2    31    34    1
     3    31    32    1
     4    34    35    1
     5    32    33    2
     6    35    36   ar
     7    35    37   ar
     8    36    38   ar
     9    37    39   ar
    10    38    39   ar
    11    29    28    1
    12    28    27    1
    13    94    91    1
    14    20    19    1
    15    21    19    1
    16    90    91    1
    17    27    26    1
    18    19    16    1
    19    83    82    2
    20    91    92    1
    21    82    81    1
    22    80    81    1
    23    81    84    1
    24    79    78    1
    25    78    75    1
    26    92    93    2
    27    26    23    1
    28    16    17    1
    29    16    15    1
    30    76    75    1
    31    76    77    2
    32    22    17   am
    33    22    23    1
    34    75    74    1
    35    17    18    2
    36    15     3   am
    37    23    24    1
    38    84    85    1
    39    24    25    2
    40    85    87   ar
    41    85    86   ar
    42     3     2    1
    43     3     4    2
    44    87    89   ar
    45    13    11   ar
    46    13    14   ar
    47     1     2    1
    48    86    88   ar
    49     2     5    1
    50    74    68   am
    51    89    88   ar
    52    11     8   ar
    53    14    12   ar
    54    69    68    2
    55    68    67    1
    56     8    10   ar
    57     8     6   ar
    58    12    10   ar
    59     5     6    1
    60    10     9   ar
    61     6     7   ar
    62    65    64    2
    63    67    66    1
    64    67    70    1
    65     9     7   ar
    66    64    66   am
    67    64    63    1
    68    63    62    1
    69    62    57   am
    70    70    71    1
    71    54    52   am
    72    73    72    1
    73    57    56    1
    74    57    58    2
    75    56    59    1
    76    56    55    1
    77    59    60    1
    78    52    53    2
    79    52    51    1
    80    71    72    1
    81    48    47    1
    82    48    51    1
    83    48    49    1
    84    47    42   am
    85    60    61    1
    86    55    61    1
    87    49    50    2
    88    41    42    1
    89    41    40    1
    90    41    44    1
    91    42    43    2
    92    45    44    1
    93    44    46    1
