@<TRIPOS>MOLECULE
tmp/1qabE00.pdb
 211 201 0 0 0
SMALL
GASTEIGER

@<TRIPOS>ATOM
      1  N       -123.3330   56.6050   35.7290 N.3    32  LEU32      -0.1231
      2  CA      -122.5640   57.2310   36.8020 C.3    32  LEU32       0.1693
      3  C       -122.5010   58.7480   36.5810 C.2    32  LEU32       0.2592
      4  O       -122.5980   59.2280   35.4360 O.2    32  LEU32      -0.2718
      5  CB      -121.1480   56.6570   36.8700 C.3    32  LEU32       0.0284
      6  CG      -120.8950   55.1400   37.0080 C.3    32  LEU32       0.0019
      7  CD1     -119.8280   54.9100   38.0860 C.3    32  LEU32       0.0001
      8  CD2     -122.2020   54.3700   37.3110 C.3    32  LEU32       0.0001
      9  N       -122.3490   59.4910   37.6840 N.am   33  PHE33      -0.1962
     10  CA      -122.3110   60.9570   37.6710 C.3    33  PHE33       0.1771
     11  C       -121.6320   61.4290   38.9590 C.2    33  PHE33       0.2619
     12  O       -121.2430   60.5980   39.7930 O.2    33  PHE33      -0.2715
     13  CB      -123.7430   61.5190   37.5990 C.3    33  PHE33       0.0574
     14  CG      -123.8260   62.9420   37.0940 C.ar   33  PHE33      -0.0200
     15  CD1     -124.9020   63.7460   37.4190 C.ar   33  PHE33      -0.0042
     16  CD2     -122.8360   63.4740   36.2930 C.ar   33  PHE33      -0.0042
     17  CE1     -124.9810   65.0510   36.9540 C.ar   33  PHE33      -0.0003
     18  CE2     -122.9180   64.7850   35.8260 C.ar   33  PHE33      -0.0003
     19  CZ      -123.9880   65.5660   36.1590 C.ar   33  PHE33      -0.0000
     20  N       -121.4990   62.7510   39.1050 N.am   34  LEU34      -0.1977
     21  CA      -120.8610   63.3870   40.2630 C.3    34  LEU34       0.1596
     22  C       -121.6060   63.1800   41.5590 C.2    34  LEU34       0.2287
     23  O       -122.7520   63.6040   41.7140 O.2    34  LEU34      -0.2864
     24  CB      -120.7450   64.8850   40.0340 C.3    34  LEU34       0.0297
     25  CG      -119.3550   65.2900   39.5810 C.3    34  LEU34       0.0022
     26  CD1     -119.0930   66.7310   39.9470 C.3    34  LEU34       0.0001
     27  CD2     -118.3390   64.3640   40.2250 C.3    34  LEU34       0.0001
     28  N       -119.7800   68.5770   45.9510 N.3    38  ILE38      -0.1245
     29  CA      -119.6780   69.0640   44.5750 C.3    38  ILE38       0.1561
     30  C       -119.4670   70.5830   44.5570 C.2    38  ILE38       0.2260
     31  O       -120.4020   71.3800   44.6660 O.2    38  ILE38      -0.2867
     32  CB      -120.9520   68.7630   43.7970 C.3    38  ILE38       0.0252
     33  CG1     -121.1700   67.2690   43.7250 C.3    38  ILE38       0.0019
     34  CG2     -120.8500   69.3160   42.4170 C.3    38  ILE38       0.0019
     35  CD1     -122.4760   66.9180   43.1100 C.3    38  ILE38       0.0001
     36  N       -118.0210   73.9810   42.5580 N.3    40  ALA40      -0.1245
     37  CA      -117.6030   74.6720   41.3610 C.3    40  ALA40       0.1562
     38  C       -116.3210   75.4820   41.5070 C.2    40  ALA40       0.2260
     39  O       -115.4260   75.2150   42.3330 O.2    40  ALA40      -0.2867
     40  CB      -118.7070   75.6010   40.9230 C.3    40  ALA40       0.0290
     41  N       -115.8340   78.8960   38.7960 N.3    42  PHE42      -0.1241
     42  CA      -115.9360   79.3770   37.4270 C.3    42  PHE42       0.1605
     43  C       -115.0410   80.5770   37.1320 C.2    42  PHE42       0.2264
     44  O       -115.2730   81.6750   37.6310 O.2    42  PHE42      -0.2867
     45  CB      -117.3950   79.7140   37.0900 C.3    42  PHE42       0.0534
     46  CG      -118.2640   78.5010   36.8470 C.ar   42  PHE42      -0.0203
     47  CD1     -119.4870   78.6210   36.2050 C.ar   42  PHE42      -0.0042
     48  CD2     -117.8670   77.2430   37.2760 C.ar   42  PHE42      -0.0042
     49  CE1     -120.3010   77.5100   35.9970 C.ar   42  PHE42      -0.0003
     50  CE2     -118.6790   76.1310   37.0700 C.ar   42  PHE42      -0.0003
     51  CZ      -119.8970   76.2690   36.4290 C.ar   42  PHE42      -0.0000
     52  N       -114.2900   76.7330   34.3050 N.3    52  ALA52      -0.1231
     53  CA      -114.9570   76.1630   35.4660 C.3    52  ALA52       0.1694
     54  C       -114.1890   74.8910   35.8040 C.2    52  ALA52       0.2593
     55  O       -113.6140   74.2810   34.9110 O.2    52  ALA52      -0.2718
     56  CB      -116.4010   75.8350   35.1310 C.3    52  ALA52       0.0304
     57  N       -114.1590   74.4920   37.0750 N.am   53  THR53      -0.1939
     58  CA      -113.4320   73.2820   37.4420 C.3    53  THR53       0.2028
     59  C       -113.9210   72.5610   38.6920 C.2    53  THR53       0.2642
     60  O       -113.1580   72.4030   39.6480 O.2    53  THR53      -0.2714
     61  CB      -111.9060   73.5610   37.6040 C.3    53  THR53       0.1808
     62  OG1     -111.2450   72.3940   38.1080 O.3    53  THR53      -0.2208
     63  CG2     -111.6640   74.6970   38.5510 C.3    53  THR53       0.0379
     64  N       -115.1620   72.0670   38.6580 N.am   54  ALA54      -0.1977
     65  CA      -115.7600   71.3950   39.8190 C.3    54  ALA54       0.1597
     66  C       -115.2510   70.0200   40.3000 C.2    54  ALA54       0.2287
     67  O       -115.1270   69.0680   39.5150 O.2    54  ALA54      -0.2864
     68  CB      -117.2830   71.3410   39.6640 C.3    54  ALA54       0.0319
     69  N       -117.1320   60.4660   43.5300 N.3    58  VAL58      -0.1245
     70  CA      -117.8230   59.5570   42.6250 C.3    58  VAL58       0.1561
     71  C       -117.7910   58.0560   42.9910 C.2    58  VAL58       0.2260
     72  O       -116.8020   57.5230   43.4880 O.2    58  VAL58      -0.2867
     73  CB      -117.2740   59.7740   41.2220 C.3    58  VAL58       0.0252
     74  CG1     -117.7790   58.7020   40.3020 C.3    58  VAL58       0.0019
     75  CG2     -117.6790   61.1630   40.7390 C.3    58  VAL58       0.0019
     76  N       -117.4520   55.4880   41.4080 N.3    60  LEU60      -0.1245
     77  CA      -116.5870   54.7010   40.5380 C.3    60  LEU60       0.1561
     78  C       -116.1410   53.2830   40.8680 C.2    60  LEU60       0.2260
     79  O       -115.5730   52.9950   41.9160 O.2    60  LEU60      -0.2867
     80  CB      -115.3620   55.5380   40.1990 C.3    60  LEU60       0.0270
     81  CG      -114.1550   54.8420   39.6120 C.3    60  LEU60       0.0019
     82  CD1     -114.5560   54.0340   38.3630 C.3    60  LEU60       0.0001
     83  CD2     -113.1210   55.9300   39.3070 C.3    60  LEU60       0.0001
     84  N       -113.4850   57.7900   44.9780 N.3    66  VAL66      -0.1245
     85  CA      -112.4020   58.7060   44.6210 C.3    66  VAL66       0.1561
     86  C       -112.9600   60.1120   44.4590 C.2    66  VAL66       0.2260
     87  O       -113.9900   60.3070   43.8130 O.2    66  VAL66      -0.2867
     88  CB      -111.6830   58.2800   43.3140 C.3    66  VAL66       0.0252
     89  CG1     -112.6910   57.8760   42.2690 C.3    66  VAL66       0.0019
     90  CG2     -110.8190   59.4170   42.8020 C.3    66  VAL66       0.0019
     91  N       -113.0210   62.9720   42.6380 N.3    68  ALA68      -0.1245
     92  CA      -112.6480   63.4010   41.2980 C.3    68  ALA68       0.1562
     93  C       -112.4200   64.9020   41.1380 C.2    68  ALA68       0.2260
     94  O       -113.1800   65.7270   41.6480 O.2    68  ALA68      -0.2867
     95  CB      -113.7130   62.9320   40.3180 C.3    68  ALA68       0.0290
     96  N       -112.3160   67.5450   38.3230 N.3    70  MET70      -0.1230
     97  CA      -112.6190   67.8280   36.9170 C.3    70  MET70       0.1702
     98  C       -111.9380   69.0650   36.3270 C.2    70  MET70       0.2592
     99  O       -110.8130   69.4440   36.6860 O.2    70  MET70      -0.2718
    100  CB      -114.1400   67.9670   36.6980 C.3    70  MET70       0.0401
    101  CG      -114.9700   66.7510   37.0760 C.3    70  MET70       0.0596
    102  SD      -114.3820   65.1320   36.4740 S.3    70  MET70      -0.1393
    103  CE      -112.9990   64.8280   37.5360 C.3    70  MET70       0.0692
    104  N       -112.6660   69.6620   35.3880 N.am   71  VAL71      -0.1980
    105  CA      -112.2790   70.8530   34.6500 C.3    71  VAL71       0.1595
    106  C       -113.0670   70.8330   33.3510 C.2    71  VAL71       0.2287
    107  O       -113.1520   69.8100   32.6840 O.2    71  VAL71      -0.2864
    108  CB      -110.7840   70.8930   34.3290 C.3    71  VAL71       0.0276
    109  CG1     -110.4920   70.0230   33.1470 C.3    71  VAL71       0.0022
    110  CG2     -110.3680   72.3210   34.0410 C.3    71  VAL71       0.0022
    111  N       -119.7190   73.1400   26.8180 N.3    85  MET85      -0.1245
    112  CA      -118.6080   72.6650   27.6180 C.3    85  MET85       0.1570
    113  C       -118.1200   71.2720   27.3700 C.2    85  MET85       0.2261
    114  O       -118.9000   70.3270   27.3140 O.2    85  MET85      -0.2867
    115  CB      -118.9120   72.8130   29.1220 C.3    85  MET85       0.0387
    116  CG      -117.6460   72.9540   30.0230 C.3    85  MET85       0.0595
    117  SD      -117.5800   72.0140   31.6110 S.3    85  MET85      -0.1393
    118  CE      -119.2990   71.8100   31.9480 C.3    85  MET85       0.0692
    119  N       -115.8010   68.6650   29.0660 N.3    87  TYR87      -0.1241
    120  CA      -115.2150   68.3630   30.3630 C.3    87  TYR87       0.1605
    121  C       -114.2810   67.1520   30.3350 C.2    87  TYR87       0.2264
    122  O       -114.5420   66.1650   29.6350 O.2    87  TYR87      -0.2867
    123  CB      -116.3650   68.1610   31.3750 C.3    87  TYR87       0.0534
    124  CG      -117.1790   66.8670   31.2700 C.ar   87  TYR87      -0.0201
    125  CD1     -118.4780   66.8570   30.7830 C.ar   87  TYR87      -0.0009
    126  CD2     -116.6870   65.6800   31.7920 C.ar   87  TYR87      -0.0009
    127  CE1     -119.2520   65.7030   30.8390 C.ar   87  TYR87       0.0417
    128  CE2     -117.4570   64.5320   31.8480 C.ar   87  TYR87       0.0417
    129  CZ      -118.7310   64.5520   31.3810 C.ar   87  TYR87       0.1957
    130  OH      -119.4760   63.4160   31.5470 O.3    87  TYR87      -0.2866
    131  N       -108.9700   58.0380   33.2040 N.3    93  PHE93      -0.1227
    132  CA      -110.0320   57.2310   33.7790 C.3    93  PHE93       0.1736
    133  C       -111.2430   58.0510   34.2530 C.2    93  PHE93       0.2595
    134  O       -112.1660   57.5070   34.8620 O.2    93  PHE93      -0.2718
    135  CB      -109.4640   56.4170   34.9500 C.3    93  PHE93       0.0547
    136  CG      -108.7520   57.2500   36.0080 C.ar   93  PHE93      -0.0202
    137  CD1     -109.4660   58.1060   36.8400 C.ar   93  PHE93      -0.0042
    138  CD2     -107.3790   57.1270   36.2080 C.ar   93  PHE93      -0.0042
    139  CE1     -108.8350   58.8110   37.8390 C.ar   93  PHE93      -0.0003
    140  CE2     -106.7410   57.8320   37.2100 C.ar   93  PHE93      -0.0003
    141  CZ      -107.4690   58.6720   38.0230 C.ar   93  PHE93      -0.0000
    142  N       -111.2630   59.3500   33.9670 N.am   94  LEU94      -0.1966
    143  CA      -112.3740   60.1700   34.4370 C.3    94  LEU94       0.1728
    144  C       -113.3230   60.6210   33.3540 C.2    94  LEU94       0.2616
    145  O       -113.1390   61.6880   32.7600 O.2    94  LEU94      -0.2715
    146  CB      -111.8530   61.4030   35.1930 C.3    94  LEU94       0.0311
    147  CG      -111.2570   61.2710   36.6100 C.3    94  LEU94       0.0022
    148  CD1     -110.7740   62.6460   37.0760 C.3    94  LEU94       0.0001
    149  CD2     -112.2970   60.6750   37.5680 C.3    94  LEU94       0.0001
    150  N       -114.3390   59.7980   33.1050 N.am   95  GLN95      -0.1977
    151  CA      -115.3770   60.0900   32.1200 C.3    95  GLN95       0.1601
    152  C       -115.2560   61.5190   31.5950 C.2    95  GLN95       0.2287
    153  O       -115.5620   62.4740   32.3160 O.2    95  GLN95      -0.2864
    154  CB      -116.7400   59.8580   32.7890 C.3    95  GLN95       0.0394
    155  CG      -117.9630   59.9180   31.8810 C.3    95  GLN95       0.0908
    156  CD      -119.2860   60.1300   32.6570 C.2    95  GLN95       0.2608
    157  OE1     -119.9240   59.1640   33.0920 O.2    95  GLN95      -0.2717
    158  NE2     -119.6960   61.3980   32.8190 N.am   95  GLN95      -0.0878
    159  N       -124.6860   72.8750   28.2820 N.3   101  HIS101     -0.1241
    160  CA      -124.6740   73.4760   29.5700 C.3   101  HIS101      0.1621
    161  C       -125.3120   74.8430   29.6510 C.2   101  HIS101      0.2264
    162  O       -124.6110   75.8430   29.6550 O.2   101  HIS101     -0.2867
    163  CB      -123.2210   73.5540   29.9980 C.3   101  HIS101      0.0745
    164  CG      -123.0620   73.7420   31.4540 C.ar  101  HIS101      0.0817
    165  ND1     -123.1980   72.7020   32.3430 N.ar  101  HIS101     -0.2268
    166  CD2     -122.9360   74.8670   32.1910 C.ar  101  HIS101      0.1154
    167  CE1     -123.1700   73.1850   33.5700 C.ar  101  HIS101      0.1986
    168  NE2     -123.0100   74.4960   33.5050 N.ar  101  HIS101     -0.2212
    169  N       -129.1620   75.3600   36.3930 N.3   114  GLN114     -0.1245
    170  CA      -128.3220   74.8130   35.3540 C.3   114  GLN114      0.1566
    171  C       -129.0610   73.6390   34.7530 C.2   114  GLN114      0.2260
    172  O       -129.7290   72.9080   35.4840 O.2   114  GLN114     -0.2867
    173  CB      -126.9970   74.3720   35.9750 C.3   114  GLN114      0.0367
    174  CG      -126.0090   73.7700   35.0150 C.3   114  GLN114      0.0905
    175  CD      -126.3210   72.3360   34.7080 C.2   114  GLN114      0.2608
    176  OE1     -127.2550   71.7780   35.2690 O.2   114  GLN114     -0.2717
    177  NE2     -125.5440   71.7250   33.8120 N.am  114  GLN114     -0.0878
    178  N       -129.9890   66.0900   33.2700 N.3   130  TYR130     -0.1241
    179  CA      -129.1780   66.1570   34.4730 C.3   130  TYR130      0.1605
    180  C       -129.2590   67.6350   34.7310 C.2   130  TYR130      0.2264
    181  O       -129.3800   68.4200   33.7830 O.2   130  TYR130     -0.2867
    182  CB      -127.7610   65.6370   34.2180 C.3   130  TYR130      0.0534
    183  CG      -126.7180   66.6570   33.8530 C.ar  130  TYR130     -0.0201
    184  CD1     -126.6510   67.8830   34.4950 C.ar  130  TYR130     -0.0009
    185  CD2     -125.7600   66.3560   32.8890 C.ar  130  TYR130     -0.0009
    186  CE1     -125.6520   68.7880   34.1890 C.ar  130  TYR130      0.0417
    187  CE2     -124.7580   67.2420   32.5720 C.ar  130  TYR130      0.0417
    188  CZ      -124.6970   68.4610   33.2180 C.ar  130  TYR130      0.1957
    189  OH      -123.6700   69.3280   32.8600 O.3   130  TYR130     -0.2866
    190  N       -128.3580   70.7680   38.1380 N.3   132  PHE132     -0.1241
    191  CA      -127.7950   71.1160   39.4470 C.3   132  PHE132      0.1605
    192  C       -128.4930   72.3870   39.9560 C.2   132  PHE132      0.2264
    193  O       -128.9990   73.1630   39.1540 O.2   132  PHE132     -0.2867
    194  CB      -126.2890   71.3720   39.3250 C.3   132  PHE132      0.0534
    195  CG      -125.4500   70.1320   39.4050 C.ar  132  PHE132     -0.0203
    196  CD1     -125.3390   69.2870   38.3190 C.ar  132  PHE132     -0.0042
    197  CD2     -124.7380   69.8340   40.5530 C.ar  132  PHE132     -0.0042
    198  CE1     -124.5260   68.1650   38.3720 C.ar  132  PHE132     -0.0003
    199  CE2     -123.9240   68.7160   40.6150 C.ar  132  PHE132     -0.0003
    200  CZ      -123.8150   67.8810   39.5250 C.ar  132  PHE132     -0.0000
    201  N       -127.5010   75.5660   42.1860 N.3   134  PHE134     -0.1241
    202  CA      -126.4740   76.2960   42.9330 C.3   134  PHE134      0.1605
    203  C       -126.9000   77.5140   43.7740 C.2   134  PHE134      0.2264
    204  O       -128.0040   78.0340   43.6330 O.2   134  PHE134     -0.2867
    205  CB      -125.3650   76.7010   41.9660 C.3   134  PHE134      0.0534
    206  CG      -124.9540   75.6010   41.0340 C.ar  134  PHE134     -0.0203
    207  CD1     -125.9050   74.8640   40.3450 C.ar  134  PHE134     -0.0042
    208  CD2     -123.6170   75.2980   40.8560 C.ar  134  PHE134     -0.0042
    209  CE1     -125.5280   73.8450   39.4980 C.ar  134  PHE134     -0.0003
    210  CE2     -123.2300   74.2830   40.0100 C.ar  134  PHE134     -0.0003
    211  CZ      -124.1860   73.5530   39.3290 C.ar  134  PHE134     -0.0000
@<TRIPOS>BOND
     1   111   112    1
     2   114   113    2
     3   113   112    1
     4   112   115    1
     5   159   160    1
     6   119   120    1
     7   115   116    1
     8   160   161    1
     9   160   163    1
    10   122   121    2
    11   161   162    2
    12   163   164    1
    13   116   117    1
    14   121   120    1
    15   120   123    1
    16   125   127   ar
    17   125   124   ar
    18   127   129   ar
    19   124   123    1
    20   124   126   ar
    21   129   130    1
    22   129   128   ar
    23   164   166   ar
    24   164   165   ar
    25   152   151    1
    26   152   153    2
    27   117   118    1
    28   126   128   ar
    29   155   156    1
    30   155   154    1
    31   151   154    1
    32   151   150    1
    33   166   168   ar
    34   165   167   ar
    35   187   185   ar
    36   187   188   ar
    37   156   158   am
    38   156   157    2
    39   107   106    2
    40   145   144    2
    41   189   188    1
    42   185   183   ar
    43   150   144   am
    44   109   108    1
    45   131   132    1
    46   188   186   ar
    47   178   179    1
    48   106   105    1
    49   144   143    1
    50   168   167   ar
    51   132   133    1
    52   132   135    1
    53   181   180    2
    54   177   175   am
    55   183   182    1
    56   183   184   ar
    57   142   133   am
    58   142   143    1
    59   110   108    1
    60   186   184   ar
    61   182   179    1
    62   133   134    2
    63    52    53    1
    64   108   105    1
    65   143   146    1
    66   179   180    1
    67   105   104    1
    68   175   174    1
    69   175   176    2
    70   171   170    1
    71   171   172    2
    72    55    54    2
    73   135   136    1
    74   174   173    1
    75    56    53    1
    76   146   147    1
    77   170   173    1
    78   170   169    1
    79   104    98   am
    80     4     3    2
    81    53    54    1
    82     1     2    1
    83    54    57   am
    84    18    19   ar
    85    18    16   ar
    86    49    47   ar
    87    49    51   ar
    88   136   138   ar
    89   136   137   ar
    90    19    17   ar
    91    47    46   ar
    92   138   140   ar
    93    16    14   ar
    94    98    99    2
    95    98    97    1
    96    51    50   ar
    97   102   101    1
    98   102   103    1
    99     3     2    1
   100     3     9   am
   101   147   148    1
   102   147   149    1
   103   100    97    1
   104   100   101    1
   105     2     5    1
   106   137   139   ar
   107    46    45    1
   108    46    48   ar
   109     5     6    1
   110    97    96    1
   111    17    15   ar
   112     6     8    1
   113     6     7    1
   114    50    48   ar
   115    57    58    1
   116    45    42    1
   117    14    15   ar
   118    14    13    1
   119    43    42    1
   120    43    44    2
   121   140   141   ar
   122    42    41    1
   123    58    61    1
   124    58    59    1
   125    13    10    1
   126    61    62    1
   127    61    63    1
   128    10     9    1
   129    10    11    1
   130   139   141   ar
   131   190   191    1
   132   196   198   ar
   133   196   195   ar
   134    82    81    1
   135   198   200   ar
   136    64    59   am
   137    64    65    1
   138    59    60    2
   139    11    20   am
   140    11    12    2
   141    20    21    1
   142   193   192    2
   143    83    81    1
   144   194   195    1
   145   194   191    1
   146   211   209   ar
   147   211   210   ar
   148   195   197   ar
   149   191   192    1
   150   209   207   ar
   151    67    66    2
   152   200   199   ar
   153    25    26    1
   154    25    24    1
   155    25    27    1
   156    81    80    1
   157    68    65    1
   158    65    66    1
   159   210   208   ar
   160    24    21    1
   161    80    77    1
   162    21    22    1
   163    74    73    1
   164    95    92    1
   165   207   206   ar
   166    77    78    1
   167    77    76    1
   168   197   199   ar
   169    75    73    1
   170   208   206   ar
   171    78    79    2
   172    40    37    1
   173   206   205    1
   174    93    92    1
   175    93    94    2
   176    73    70    1
   177    92    91    1
   178    37    38    1
   179    37    36    1
   180    38    39    2
   181    22    23    2
   182   205   202    1
   183   201   202    1
   184    89    88    1
   185    34    32    1
   186    70    71    1
   187    70    69    1
   188    90    88    1
   189   202   203    1
   190    71    72    2
   191    35    33    1
   192    88    85    1
   193   204   203    2
   194    33    32    1
   195    32    29    1
   196    87    86    2
   197    86    85    1
   198    30    29    1
   199    30    31    2
   200    29    28    1
   201    85    84    1
