@<TRIPOS>MOLECULE
tmp/1qaoA00.pdb
 235 230 0 0 0
SMALL
GASTEIGER

@<TRIPOS>ATOM
      1  N         22.9180   34.7980   17.3750 N.3     1  SER1       -0.1202
      2  CA        23.2140   35.1070   18.8090 C.3     1  SER1        0.2020
      3  C         21.9550   35.7000   19.4860 C.2     1  SER1        0.2619
      4  O         21.2620   35.0110   20.2550 O.2     1  SER1       -0.2717
      5  CB        24.4310   36.0580   18.8860 C.3     1  SER1        0.2103
      6  OG        24.0980   37.3700   19.3120 O.3     1  SER1       -0.2182
      7  N         21.6470   36.9600   19.2030 N.am    2  GLN2       -0.1965
      8  CA        20.4650   37.5490   19.7970 C.3     2  GLN2        0.1733
      9  C         19.4840   37.9360   18.7080 C.2     2  GLN2        0.2616
     10  O         19.3970   39.1040   18.3580 O.2     2  GLN2       -0.2715
     11  CB        20.8210   38.7830   20.6120 C.3     2  GLN2        0.0408
     12  CG        21.8260   38.5580   21.7300 C.3     2  GLN2        0.0908
     13  CD        22.0480   39.7960   22.5930 C.2     2  GLN2        0.2608
     14  OE1       22.9030   39.8160   23.4800 O.2     2  GLN2       -0.2717
     15  NE2       21.2910   40.8580   22.3070 N.am    2  GLN2       -0.0878
     16  N         18.7490   36.9610   18.1690 N.am    3  ASN3       -0.1958
     17  CA        17.7490   37.2420   17.1360 C.3     3  ASN3        0.1819
     18  C         16.4510   37.8070   17.7070 C.2     3  ASN3        0.2621
     19  O         16.0030   37.4250   18.7930 O.2     3  ASN3       -0.2715
     20  CB        17.4640   35.9870   16.2950 C.3     3  ASN3        0.1195
     21  CG        18.7400   35.4120   15.7100 C.2     3  ASN3        0.2630
     22  OD1       18.7300   34.7660   14.6560 O.2     3  ASN3       -0.2716
     23  ND2       19.8610   35.6440   16.3990 N.am    3  ASN3       -0.0877
     24  N         15.8780   38.7630   17.0010 N.am    4  PHE4       -0.1960
     25  CA        14.6570   39.3740   17.4650 C.3     4  PHE4        0.1771
     26  C         13.5550   39.2210   16.4230 C.2     4  PHE4        0.2619
     27  O         13.8090   39.2520   15.2110 O.2     4  PHE4       -0.2715
     28  CB        14.8800   40.8590   17.7420 C.3     4  PHE4        0.0574
     29  CG        15.9590   41.1280   18.7320 C.ar    4  PHE4       -0.0200
     30  CD1       15.7990   40.7880   20.0670 C.ar    4  PHE4       -0.0042
     31  CD2       17.1550   41.7150   18.3290 C.ar    4  PHE4       -0.0042
     32  CE1       16.8130   41.0300   21.0010 C.ar    4  PHE4       -0.0003
     33  CE2       18.1770   41.9610   19.2480 C.ar    4  PHE4       -0.0003
     34  CZ        18.0050   41.6180   20.5900 C.ar    4  PHE4       -0.0000
     35  N         12.3370   39.0010   16.8940 N.am    5  ILE5       -0.1977
     36  CA        11.2050   38.9140   16.0020 C.3     5  ILE5        0.1596
     37  C         10.4300   40.1430   16.4300 C.2     5  ILE5        0.2287
     38  O          9.8220   40.1550   17.4920 O.2     5  ILE5       -0.2864
     39  CB        10.3830   37.6390   16.2120 C.3     5  ILE5        0.0276
     40  CG1       11.2230   36.4100   15.8500 C.3     5  ILE5        0.0022
     41  CG2        9.1590   37.6810   15.3340 C.3     5  ILE5        0.0022
     42  CD1       10.5130   35.0850   16.0450 C.3     5  ILE5        0.0001
     43  N          8.9600   33.8850   30.8940 N.3    28  GLU28      -0.1231
     44  CA         9.5070   33.9180   29.5430 C.3    28  GLU28       0.1699
     45  C         11.0350   33.8530   29.5580 C.2    28  GLU28       0.2592
     46  O         11.6970   34.5590   30.3190 O.2    28  GLU28      -0.2718
     47  CB         9.0490   35.1530   28.7550 C.3    28  GLU28       0.0402
     48  CG        10.1110   35.5700   27.7260 C.3    28  GLU28       0.1161
     49  CD         9.6240   36.4750   26.6200 C.2    28  GLU28       0.3649
     50  OE1        8.9420   37.4830   26.9010 O.co2  28  GLU28      -0.2457
     51  OE2        9.9610   36.1700   25.4570 O.co2  28  GLU28      -0.2457
     52  N         11.5810   32.9900   28.7080 N.am   29  ILE29      -0.1966
     53  CA        13.0220   32.8090   28.5870 C.3    29  ILE29       0.1727
     54  C         13.5370   33.7330   27.4820 C.2    29  ILE29       0.2617
     55  O         13.1730   33.5720   26.3180 O.2    29  ILE29      -0.2715
     56  CB        13.3700   31.3350   28.2140 C.3    29  ILE29       0.0290
     57  CG1       12.8030   30.3760   29.2620 C.3    29  ILE29       0.0022
     58  CG2       14.8790   31.1380   28.1250 C.3    29  ILE29       0.0023
     59  CD1       13.0460   28.8980   28.9380 C.3    29  ILE29       0.0001
     60  N         14.3650   34.7050   27.8610 N.am   30  GLY30      -0.1940
     61  CA        14.9420   35.6420   26.9060 C.3    30  GLY30       0.2014
     62  C         13.9720   36.6220   26.2640 C.2    30  GLY30       0.2640
     63  O         13.7260   36.5570   25.0610 O.2    30  GLY30      -0.2714
     64  N         13.4330   37.5450   27.0500 N.am   31  SER31      -0.1935
     65  CA        12.4790   38.5220   26.5310 C.3    31  SER31       0.2055
     66  C         13.0390   39.4730   25.4720 C.2    31  SER31       0.2644
     67  O         12.2720   40.1480   24.7840 O.2    31  SER31      -0.2714
     68  CB        11.8850   39.3360   27.6820 C.3    31  SER31       0.2130
     69  OG        12.9020   40.0030   28.4010 O.3    31  SER31      -0.2179
     70  N         14.3640   39.5190   25.3410 N.am   32  GLY32      -0.1939
     71  CA        14.9970   40.3890   24.3610 C.3    32  GLY32       0.2014
     72  C         14.5200   41.8280   24.4480 C.2    32  GLY32       0.2638
     73  O         14.5500   42.4350   25.5230 O.2    32  GLY32      -0.2714
     74  N         14.0830   42.3830   23.3190 N.am   33  LYS33      -0.1977
     75  CA        13.5860   43.7520   23.3090 C.3    33  LYS33       0.1596
     76  C         12.1420   43.8570   23.8100 C.2    33  LYS33       0.2287
     77  O         11.5390   44.9280   23.7650 O.2    33  LYS33      -0.2864
     78  CB        13.7270   44.3650   21.9140 C.3    33  LYS33       0.0298
     79  CG        15.1300   44.8790   21.6100 C.3    33  LYS33       0.0038
     80  CD        15.2060   45.5030   20.2160 C.3    33  LYS33       0.0206
     81  CE        16.4790   46.3370   20.0050 C.3    33  LYS33       0.1093
     82  NZ        17.7380   45.5530   20.1160 N.3    33  LYS33      -0.1314
     83  N          9.3060   42.2120   22.6370 N.3    35  HIS35      -0.1226
     84  CA         8.2120   42.0550   21.6770 C.3    35  HIS35       0.1752
     85  C          7.1900   40.9910   22.0170 C.2    35  HIS35       0.2596
     86  O          5.9920   41.2290   21.8720 O.2    35  HIS35      -0.2718
     87  CB         8.7630   41.8370   20.2740 C.3    35  HIS35       0.0759
     88  CG         9.5050   43.0250   19.7530 C.ar   35  HIS35       0.0818
     89  ND1       10.7180   43.4280   20.2720 N.ar   35  HIS35      -0.2268
     90  CD2        9.1590   43.9560   18.8340 C.ar   35  HIS35       0.1154
     91  CE1       11.0870   44.5560   19.6930 C.ar   35  HIS35       0.1986
     92  NE2       10.1580   44.8980   18.8170 N.ar   35  HIS35      -0.2212
     93  N          7.6390   39.8200   22.4550 N.am   36  PHE36      -0.1976
     94  CA         6.7020   38.7760   22.8570 C.3    36  PHE36       0.1639
     95  C          6.1860   39.1150   24.2550 C.2    36  PHE36       0.2290
     96  O          5.0080   38.8990   24.5710 O.2    36  PHE36      -0.2864
     97  CB         7.3840   37.4050   22.8730 C.3    36  PHE36       0.0560
     98  CG         7.5120   36.7780   21.5170 C.ar   36  PHE36      -0.0200
     99  CD1        6.3780   36.3560   20.8250 C.ar   36  PHE36      -0.0042
    100  CD2        8.7510   36.6630   20.9000 C.ar   36  PHE36      -0.0042
    101  CE1        6.4810   35.8360   19.5370 C.ar   36  PHE36      -0.0003
    102  CE2        8.8600   36.1440   19.6100 C.ar   36  PHE36      -0.0003
    103  CZ         7.7310   35.7320   18.9300 C.ar   36  PHE36      -0.0000
    104  N         12.8770   36.5580   32.1530 N.3    50  ILE50      -0.1231
    105  CA        14.2460   36.3020   32.5790 C.3    50  ILE50       0.1692
    106  C         15.1880   36.6270   31.4250 C.2    50  ILE50       0.2592
    107  O         15.2090   35.9210   30.4220 O.2    50  ILE50      -0.2718
    108  CB        14.4380   34.8290   32.9710 C.3    50  ILE50       0.0266
    109  CG1       13.4080   34.4350   34.0330 C.3    50  ILE50       0.0019
    110  CG2       15.8500   34.6160   33.5050 C.3    50  ILE50       0.0020
    111  CD1       13.4160   32.9580   34.3640 C.3    50  ILE50       0.0001
    112  N         15.9570   37.7000   31.5680 N.am   51  GLU51      -0.1966
    113  CA        16.8930   38.1220   30.5300 C.3    51  GLU51       0.1733
    114  C         18.3010   38.3190   31.1070 C.2    51  GLU51       0.2616
    115  O         18.5220   39.1250   32.0060 O.2    51  GLU51      -0.2715
    116  CB        16.3820   39.4090   29.8680 C.3    51  GLU51       0.0429
    117  CG        17.3140   40.0090   28.8350 C.3    51  GLU51       0.1163
    118  CD        17.7240   39.0180   27.7660 C.2    51  GLU51       0.3649
    119  OE1       16.8430   38.4940   27.0540 O.co2  51  GLU51      -0.2457
    120  OE2       18.9380   38.7640   27.6380 O.co2  51  GLU51      -0.2457
    121  N         19.2520   37.5730   30.5660 N.am   52  ILE52      -0.1963
    122  CA        20.6310   37.6110   31.0290 C.3    52  ILE52       0.1727
    123  C         21.3530   38.9180   30.6700 C.2    52  ILE52       0.2616
    124  O         22.2960   39.3300   31.3520 O.2    52  ILE52      -0.2715
    125  CB        21.4040   36.4100   30.4430 C.3    52  ILE52       0.0290
    126  CG1       22.6940   36.1690   31.2200 C.3    52  ILE52       0.0022
    127  CG2       21.7150   36.6660   28.9770 C.3    52  ILE52       0.0023
    128  CD1       23.4320   34.9410   30.7420 C.3    52  ILE52       0.0001
    129  N         20.9080   39.5650   29.5990 N.am   53  ASP53      -0.1971
    130  CA        21.5090   40.8170   29.1590 C.3    53  ASP53       0.1709
    131  C         20.9030   41.9910   29.9340 C.2    53  ASP53       0.2293
    132  O         19.7070   42.2700   29.8200 O.2    53  ASP53      -0.2864
    133  CB        21.2680   40.9960   27.6670 C.3    53  ASP53       0.1436
    134  CG        22.0070   42.1760   27.1050 C.2    53  ASP53       0.3671
    135  OD1       21.7130   43.3250   27.5080 O.co2  53  ASP53      -0.2456
    136  OD2       22.8950   41.9400   26.2620 O.co2  53  ASP53      -0.2456
    137  N         19.0630   44.6790   27.6380 N.3    56  LEU56      -0.1245
    138  CA        17.7700   44.2010   27.1690 C.3    56  LEU56       0.1561
    139  C         16.6820   44.2360   28.2330 C.2    56  LEU56       0.2260
    140  O         15.5240   44.4930   27.9190 O.2    56  LEU56      -0.2867
    141  CB        17.9100   42.7870   26.6050 C.3    56  LEU56       0.0270
    142  CG        18.7310   42.7180   25.3130 C.3    56  LEU56       0.0019
    143  CD1       18.9650   41.2740   24.9030 C.3    56  LEU56       0.0001
    144  CD2       18.0010   43.4770   24.2210 C.3    56  LEU56       0.0001
    145  N         18.7300   37.6790   34.9540 N.3    75  LYS75      -0.1231
    146  CA        19.4430   36.4750   35.3690 C.3    75  LYS75       0.1693
    147  C         19.6770   35.4650   34.2680 C.2    75  LYS75       0.2592
    148  O         19.2000   35.6280   33.1520 O.2    75  LYS75      -0.2718
    149  CB        18.7070   35.8210   36.5410 C.3    75  LYS75       0.0285
    150  CG        18.5930   36.7800   37.7100 C.3    75  LYS75       0.0035
    151  CD        18.1360   36.1520   39.0050 C.3    75  LYS75       0.0206
    152  CE        18.2250   37.2040   40.1120 C.3    75  LYS75       0.1093
    153  NZ        19.5850   37.8430   40.1350 N.3    75  LYS75      -0.1314
    154  N         20.4450   34.4320   34.5930 N.am   76  ASP76      -0.1960
    155  CA        20.7680   33.3700   33.6480 C.3    76  ASP76       0.1840
    156  C         19.6760   32.3230   33.7970 C.2    76  ASP76       0.2622
    157  O         19.4430   31.8270   34.8970 O.2    76  ASP76      -0.2715
    158  CB        22.1110   32.7380   34.0020 C.3    76  ASP76       0.1450
    159  CG        22.5460   31.6970   32.9970 C.2    76  ASP76       0.3671
    160  OD1       21.6720   31.0150   32.4230 O.co2  76  ASP76      -0.2456
    161  OD2       23.7650   31.5360   32.7990 O.co2  76  ASP76      -0.2456
    162  N         19.0070   31.9820   32.7020 N.am   77  ILE77      -0.1963
    163  CA        17.9390   30.9980   32.7740 C.3    77  ILE77       0.1727
    164  C         18.4680   29.6980   33.3830 C.2    77  ILE77       0.2616
    165  O         17.8420   29.1090   34.2670 O.2    77  ILE77      -0.2715
    166  CB        17.3310   30.7010   31.3770 C.3    77  ILE77       0.0290
    167  CG1       16.0850   29.8380   31.5420 C.3    77  ILE77       0.0022
    168  CG2       18.3290   29.9680   30.4950 C.3    77  ILE77       0.0023
    169  CD1       15.0220   30.4860   32.3950 C.3    77  ILE77       0.0001
    170  N         19.6370   29.2650   32.9260 N.am   78  LEU78      -0.1977
    171  CA        20.2140   28.0350   33.4240 C.3    78  LEU78       0.1596
    172  C         20.3520   27.9990   34.9390 C.2    78  LEU78       0.2287
    173  O         20.2370   26.9320   35.5420 O.2    78  LEU78      -0.2864
    174  CB        21.5740   27.7970   32.7730 C.3    78  LEU78       0.0297
    175  CG        21.5170   27.7400   31.2480 C.3    78  LEU78       0.0022
    176  CD1       22.8700   27.2870   30.7240 C.3    78  LEU78       0.0001
    177  CD2       20.4190   26.7710   30.7930 C.3    78  LEU78       0.0001
    178  N         11.6130   32.3020   22.9970 N.3    93  ASN93      -0.1225
    179  CA        12.2530   32.2710   21.6950 C.3    93  ASN93       0.1785
    180  C         13.7120   32.2350   22.1370 C.2    93  ASN93       0.2597
    181  O         14.3140   33.2540   22.4440 O.2    93  ASN93      -0.2718
    182  CB        11.9290   33.5250   20.8920 C.3    93  ASN93       0.1169
    183  CG        12.7760   33.6370   19.6510 C.2    93  ASN93       0.2627
    184  OD1       13.0970   32.6320   19.0120 O.2    93  ASN93      -0.2716
    185  ND2       13.1330   34.8630   19.2860 N.am   93  ASN93      -0.0877
    186  N         14.2560   31.0300   22.1880 N.am   94  ILE94      -0.1966
    187  CA        15.5930   30.8010   22.6900 C.3    94  ILE94       0.1712
    188  C         16.7360   30.6530   21.6920 C.2    94  ILE94       0.2458
    189  O         16.5350   30.2600   20.5360 O.2    94  ILE94      -0.2730
    190  CB        15.5730   29.5480   23.5780 C.3    94  ILE94       0.0289
    191  CG1       15.3340   28.3060   22.7090 C.3    94  ILE94       0.0022
    192  CG2       14.4320   29.6590   24.6010 C.3    94  ILE94       0.0023
    193  CD1       15.3470   27.0060   23.4820 C.3    94  ILE94       0.0001
    194  N         17.9680   30.9520   22.1490 N.am   95  PRO95      -0.2727
    195  CA        19.2320   30.8920   21.4080 C.3    95  PRO95       0.1402
    196  C         19.5860   29.4460   21.0660 C.2    95  PRO95       0.2269
    197  O         19.4920   28.5650   21.9220 O.2    95  PRO95      -0.2865
    198  CB        20.2220   31.4870   22.4000 C.3    95  PRO95       0.0296
    199  CG        19.3500   32.3760   23.2520 C.3    95  PRO95       0.0237
    200  CD        18.2360   31.4310   23.5140 C.3    95  PRO95       0.0939
    201  N         22.5500   28.0380   20.4310 N.3    97  ASN97      -0.1225
    202  CA        23.7480   27.5520   21.1040 C.3    97  ASN97       0.1785
    203  C         23.5030   26.8770   22.4560 C.2    97  ASN97       0.2597
    204  O         24.3250   26.0830   22.9050 O.2    97  ASN97      -0.2718
    205  CB        24.7600   28.6950   21.2610 C.3    97  ASN97       0.1169
    206  CG        24.1380   29.9530   21.8440 C.2    97  ASN97       0.2627
    207  OD1       23.2940   30.5940   21.2080 O.2    97  ASN97      -0.2716
    208  ND2       24.5480   30.3120   23.0610 N.am   97  ASN97      -0.0877
    209  N         22.3850   27.1920   23.1060 N.am   98  ILE98      -0.1980
    210  CA        22.0590   26.5810   24.3990 C.3    98  ILE98       0.1595
    211  C         20.6580   25.9630   24.4380 C.2    98  ILE98       0.2287
    212  O         20.0720   25.8050   25.5130 O.2    98  ILE98      -0.2864
    213  CB        22.1770   27.5980   25.5710 C.3    98  ILE98       0.0276
    214  CG1       21.3340   28.8420   25.2790 C.3    98  ILE98       0.0022
    215  CG2       23.6330   27.9510   25.8020 C.3    98  ILE98       0.0022
    216  CD1       21.3120   29.8520   26.4020 C.3    98  ILE98       0.0001
    217  N         18.8900   24.6380   27.8840 N.3   102  ILE102     -0.1245
    218  CA        17.6440   25.2840   28.2920 C.3   102  ILE102      0.1561
    219  C         16.4600   24.3200   28.3500 C.2   102  ILE102      0.2260
    220  O         15.6580   24.3490   29.2910 O.2   102  ILE102     -0.2867
    221  CB        17.2510   26.4230   27.3370 C.3   102  ILE102      0.0252
    222  CG1       18.2730   27.5570   27.4260 C.3   102  ILE102      0.0019
    223  CG2       15.8320   26.9040   27.6580 C.3   102  ILE102      0.0019
    224  CD1       17.9470   28.7620   26.5400 C.3   102  ILE102      0.0001
    225  N         12.9110   36.6610   11.6910 N.3   155  PHE155     -0.1241
    226  CA        14.0290   36.9510   12.5890 C.3   155  PHE155      0.1605
    227  C         14.9840   38.0090   12.0400 C.2   155  PHE155      0.2264
    228  O         15.0410   38.2640   10.8330 O.2   155  PHE155     -0.2867
    229  CB        14.8840   35.6940   12.8090 C.3   155  PHE155      0.0534
    230  CG        14.2090   34.5960   13.5630 C.ar  155  PHE155     -0.0203
    231  CD1       14.2800   34.5450   14.9520 C.ar  155  PHE155     -0.0042
    232  CD2       13.5500   33.5740   12.8800 C.ar  155  PHE155     -0.0042
    233  CE1       13.7160   33.4930   15.6440 C.ar  155  PHE155     -0.0003
    234  CE2       12.9780   32.5140   13.5660 C.ar  155  PHE155     -0.0003
    235  CZ        13.0630   32.4710   14.9520 C.ar  155  PHE155     -0.0000
@<TRIPOS>BOND
     1   228   227    2
     2   225   226    1
     3   227   226    1
     4   226   229    1
     5   229   230    1
     6   232   230   ar
     7   232   234   ar
     8   230   231   ar
     9   234   235   ar
    10    22    21    2
    11   235   233   ar
    12   231   233   ar
    13    27    26    2
    14    41    39    1
    15    21    20    1
    16    21    23   am
    17    40    42    1
    18    40    39    1
    19    36    39    1
    20    36    37    1
    21    36    35    1
    22    20    17    1
    23    26    35   am
    24    26    25    1
    25    37    38    2
    26    24    25    1
    27    24    18   am
    28    17    18    1
    29    17    16    1
    30     1     2    1
    31    25    28    1
    32    18    19    2
    33    28    29    1
    34    16     9   am
    35    31    29   ar
    36    31    33   ar
    37    10     9    2
    38     9     8    1
    39    29    30   ar
    40     2     5    1
    41     2     3    1
    42    92    90   ar
    43    92    91   ar
    44    90    88   ar
    45     5     6    1
    46   103   101   ar
    47   103   102   ar
    48   184   183    2
    49     7     3   am
    50     7     8    1
    51    33    34   ar
    52   185   183   am
    53     3     4    2
    54   101    99   ar
    55   102   100   ar
    56   183   182    1
    57    91    89   ar
    58    88    89   ar
    59    88    87    1
    60     8    11    1
    61    81    82    1
    62    81    80    1
    63    30    32   ar
    64    80    79    1
    65    87    84    1
    66   201   202    1
    67   189   188    2
    68    34    32   ar
    69    11    12    1
    70    99    98   ar
    71   182   179    1
    72   100    98   ar
    73   196   195    1
    74   196   197    2
    75   202   205    1
    76   202   203    1
    77   207   206    2
    78   205   206    1
    79   195   194    1
    80   195   198    1
    81    98    97    1
    82    79    78    1
    83    84    85    1
    84    84    83    1
    85   188   194   am
    86   188   187    1
    87   179   180    1
    88   179   178    1
    89    12    13    1
    90   206   208   am
    91    86    85    2
    92    78    75    1
    93    85    93   am
    94   180   186   am
    95   180   181    2
    96   194   200    1
    97   186   187    1
    98    15    13   am
    99   198   199    1
   100    93    94    1
   101   203   204    2
   102   203   209   am
   103    13    14    2
   104   187   190    1
   105   191   193    1
   106   191   190    1
   107    94    97    1
   108    94    95    1
   109   209   210    1
   110   199   200    1
   111    75    74    1
   112    75    76    1
   113    74    72   am
   114   190   192    1
   115    77    76    2
   116   144   142    1
   117    95    96    2
   118    71    72    1
   119    71    70    1
   120   210   211    1
   121   210   213    1
   122   211   212    2
   123    72    73    2
   124    67    66    2
   125   143   142    1
   126    63    62    2
   127   214   213    1
   128   214   216    1
   129   142   141    1
   130    70    66   am
   131    51    49   ar
   132    66    65    1
   133   213   215    1
   134   136   134   ar
   135    62    61    1
   136    62    64   am
   137    55    54    2
   138    65    64    1
   139    65    68    1
   140   224   222    1
   141   141   138    1
   142    49    50   ar
   143    49    48    1
   144    61    60    1
   145   119   118   ar
   146   134   135   ar
   147   134   133    1
   148   138   137    1
   149   138   139    1
   150   221   222    1
   151   221   223    1
   152   221   218    1
   153    54    60   am
   154    54    53    1
   155   120   118   ar
   156   133   130    1
   157    68    69    1
   158    48    47    1
   159   118   117    1
   160   217   218    1
   161   140   139    2
   162    58    56    1
   163    56    53    1
   164    56    57    1
   165   218   219    1
   166   219   220    2
   167    53    52    1
   168    52    45   am
   169    47    44    1
   170   117   116    1
   171    59    57    1
   172   127   125    1
   173   130   129    1
   174   130   131    1
   175    44    45    1
   176    44    43    1
   177    45    46    2
   178   129   123   am
   179   132   131    2
   180   116   113    1
   181   107   106    2
   182   125   122    1
   183   125   126    1
   184   168   166    1
   185   113   114    1
   186   113   112    1
   187   121   122    1
   188   121   114   am
   189   123   122    1
   190   123   124    2
   191   176   175    1
   192   128   126    1
   193   177   175    1
   194   114   115    2
   195   175   174    1
   196   166   167    1
   197   166   163    1
   198   106   112   am
   199   106   105    1
   200   167   169    1
   201   104   105    1
   202   160   159   ar
   203   105   108    1
   204   162   163    1
   205   162   156   am
   206   174   171    1
   207   163   164    1
   208   161   159   ar
   209   170   164   am
   210   170   171    1
   211   108   110    1
   212   108   109    1
   213   159   158    1
   214   148   147    2
   215   164   165    2
   216   171   172    1
   217   155   156    1
   218   155   158    1
   219   155   154    1
   220   156   157    2
   221   109   111    1
   222   147   154   am
   223   147   146    1
   224   172   173    2
   225   145   146    1
   226   146   149    1
   227   149   150    1
   228   150   151    1
   229   151   152    1
   230   152   153    1
