@<TRIPOS>MOLECULE
tmp/1qapA00.pdb
 85 79 0 0 0
SMALL
GASTEIGER

@<TRIPOS>ATOM
      1  N         19.2780   25.7970   40.9500 N.3   144  THR144     -0.1203
      2  CA        18.6440   27.0700   41.2310 C.3   144  THR144      0.1994
      3  C         19.6090   27.9200   42.0400 C.2   144  THR144      0.2618
      4  O         20.8010   27.6480   42.0560 O.2   144  THR144     -0.2717
      5  CB        17.3440   26.8400   42.0360 C.3   144  THR144      0.1784
      6  OG1       17.6450   26.1260   43.2480 O.3   144  THR144     -0.2211
      7  CG2       16.3410   26.0260   41.2030 C.3   144  THR144      0.0376
      8  N         19.0920   28.9660   42.6810 N.am  145  ARG145     -0.1965
      9  CA        19.9000   29.8580   43.5220 C.3   145  ARG145      0.1729
     10  C         19.5390   29.6020   44.9940 C.2   145  ARG145      0.2616
     11  O         19.8350   30.4080   45.8770 O.2   145  ARG145     -0.2715
     12  CB        19.6510   31.3330   43.1640 C.3   145  ARG145      0.0348
     13  CG        20.0920   31.7670   41.7560 C.3   145  ARG145      0.0492
     14  CD        19.8880   33.2640   41.5820 C.3   145  ARG145      0.2205
     15  NE        18.5630   33.6630   42.0530 N.pl3 145  ARG145     -0.0865
     16  CZ        18.3170   34.6530   42.9140 C.cat 145  ARG145      0.5346
     17  NH1       19.3030   35.3780   43.4260 N.pl3 145  ARG145      0.1354
     18  NH2       17.0650   34.9230   43.2640 N.pl3 145  ARG145      0.1354
     19  N         18.8700   28.4820   45.2460 N.am  146  LYS146     -0.1977
     20  CA        18.4850   28.1120   46.5980 C.3   146  LYS146      0.1596
     21  C         19.6190   27.2220   47.1360 C.2   146  LYS146      0.2287
     22  O         19.5390   25.9970   47.1350 O.2   146  LYS146     -0.2864
     23  CB        17.1310   27.3910   46.5590 C.3   146  LYS146      0.0298
     24  CG        16.0690   28.1750   45.7840 C.3   146  LYS146      0.0038
     25  CD        14.7280   27.4690   45.7630 C.3   146  LYS146      0.0206
     26  CE        13.7320   28.2320   44.8900 C.3   146  LYS146      0.1093
     27  NZ        12.7710   27.3340   44.1650 N.3   146  LYS146     -0.1314
     28  N         22.2870   26.4830   36.3300 N.3   167  HIS167     -0.1226
     29  CA        21.4420   27.5590   35.8680 C.3   167  HIS167      0.1752
     30  C         22.2640   28.8290   36.0510 C.2   167  HIS167      0.2595
     31  O         23.4480   28.7430   36.3640 O.2   167  HIS167     -0.2718
     32  CB        20.1660   27.6260   36.6930 C.3   167  HIS167      0.0759
     33  CG        18.9150   28.1350   36.0530 C.ar  167  HIS167      0.0818
     34  ND1       18.8670   28.5600   34.7440 N.ar  167  HIS167     -0.2268
     35  CD2       17.6670   28.3080   36.5540 C.ar  167  HIS167      0.1154
     36  CE1       17.6420   28.9710   34.4660 C.ar  167  HIS167      0.1986
     37  NE2       16.8960   28.8300   35.5450 N.ar  167  HIS167     -0.2212
     38  N         21.6490   29.9960   35.8480 N.am  168  ARG168     -0.1980
     39  CA        22.3430   31.2710   35.9980 C.3   168  ARG168      0.1597
     40  C         23.1040   31.2530   37.3200 C.2   168  ARG168      0.2287
     41  O         22.6740   30.6120   38.2850 O.2   168  ARG168     -0.2864
     42  CB        21.3500   32.4470   35.9320 C.3   168  ARG168      0.0334
     43  CG        20.2440   32.4070   36.9660 C.3   168  ARG168      0.0492
     44  CD        18.9930   33.1050   36.4940 C.3   168  ARG168      0.2205
     45  NE        19.0350   34.5540   36.6680 N.pl3 168  ARG168     -0.0865
     46  CZ        18.3640   35.2140   37.6080 C.cat 168  ARG168      0.5346
     47  NH1       17.6020   34.5510   38.4690 N.pl3 168  ARG168      0.1354
     48  NH2       18.4400   36.5400   37.6800 N.pl3 168  ARG168      0.1354
     49  N         15.5100   36.9190   34.1930 N.3   176  LEU176     -0.1245
     50  CA        14.3800   36.0390   34.4850 C.3   176  LEU176      0.1561
     51  C         13.1150   36.8910   34.5730 C.2   176  LEU176      0.2260
     52  O         12.6860   37.3220   35.6500 O.2   176  LEU176     -0.2867
     53  CB        14.6060   35.2580   35.7780 C.3   176  LEU176      0.0270
     54  CG        14.0150   33.8440   35.8310 C.3   176  LEU176      0.0019
     55  CD1       14.4830   33.1290   37.1130 C.3   176  LEU176      0.0001
     56  CD2       12.4970   33.9030   35.7560 C.3   176  LEU176      0.0001
     57  N         10.1390   29.2440   30.9010 N.3   226  MET226     -0.1245
     58  CA         9.7810   28.3720   31.9910 C.3   226  MET226      0.1570
     59  C          8.2860   28.3900   32.1880 C.2   226  MET226      0.2261
     60  O          7.6660   29.4410   32.2250 O.2   226  MET226     -0.2867
     61  CB        10.4680   28.8210   33.2660 C.3   226  MET226      0.0387
     62  CG         9.8830   28.2150   34.5200 C.3   226  MET226      0.0595
     63  SD        10.8120   28.7470   35.9090 S.3   226  MET226     -0.1393
     64  CE        10.9690   30.5080   35.5260 C.3   226  MET226      0.0692
     65  N         11.8770   25.2520   30.4450 N.3   249  GLU249     -0.1245
     66  CA        12.3360   24.8800   31.7720 C.3   249  GLU249      0.1567
     67  C         11.1120   24.7260   32.6530 C.2   249  GLU249      0.2260
     68  O         10.3140   25.6550   32.8090 O.2   249  GLU249     -0.2867
     69  CB        13.2480   25.9400   32.3780 C.3   249  GLU249      0.0388
     70  CG        13.5000   25.7250   33.8690 C.3   249  GLU249      0.1160
     71  CD        14.3770   26.7990   34.4920 C.2   249  GLU249      0.3649
     72  OE1       14.8990   27.6630   33.7500 O.co2 249  GLU249     -0.2457
     73  OE2       14.5530   26.7690   35.7310 O.co2 249  GLU249     -0.2457
     74  N          9.6990   23.9780   36.3450 N.3   251  SER251     -0.1217
     75  CA        10.1660   24.0680   37.7110 C.3   251  SER251      0.1889
     76  C          9.5150   22.8950   38.4030 C.2   251  SER251      0.2288
     77  O          8.4670   23.0420   39.0350 O.2   251  SER251     -0.2866
     78  CB         9.7430   25.3820   38.3420 C.3   251  SER251      0.2089
     79  OG        10.7980   25.8730   39.1490 O.3   251  SER251     -0.2183
     80  N         14.2130   22.1570   36.5460 N.3   271  SER271     -0.1217
     81  CA        15.0180   22.7140   37.6370 C.3   271  SER271      0.1889
     82  C         14.4750   22.2480   38.9680 C.2   271  SER271      0.2288
     83  O         13.2750   22.3380   39.2220 O.2   271  SER271     -0.2866
     84  CB        15.0490   24.2440   37.5990 C.3   271  SER271      0.2089
     85  OG        13.7440   24.7830   37.5910 O.3   271  SER271     -0.2183
@<TRIPOS>BOND
     1    65    66    1
     2    57    58    1
     3    66    69    1
     4    66    67    1
     5    58    59    1
     6    58    61    1
     7    59    60    2
     8    69    70    1
     9    67    68    2
    10    61    62    1
    11    72    71   ar
    12    70    71    1
    13    49    50    1
    14    36    34   ar
    15    36    37   ar
    16    50    51    1
    17    50    53    1
    18    71    73   ar
    19    62    63    1
    20    51    52    2
    21    34    33   ar
    22    64    63    1
    23    37    35   ar
    24    56    54    1
    25    53    54    1
    26    54    55    1
    27    38    39    1
    28    38    30   am
    29    29    30    1
    30    29    28    1
    31    29    32    1
    32    42    39    1
    33    42    43    1
    34    39    40    1
    35    30    31    2
    36    33    35   ar
    37    33    32    1
    38    74    75    1
    39    44    45    1
    40    44    43    1
    41    80    81    1
    42    45    46    2
    43    40    41    2
    44    85    84    1
    45    84    81    1
    46    46    48    1
    47    46    47    1
    48    81    82    1
    49    75    78    1
    50    75    76    1
    51    78    79    1
    52    76    77    2
    53    82    83    2
    54     1     2    1
    55     7     5    1
    56     2     5    1
    57     2     3    1
    58    14    13    1
    59    14    15    1
    60    13    12    1
    61     5     6    1
    62     3     4    2
    63     3     8   am
    64    15    16    2
    65     8     9    1
    66    16    18    1
    67    16    17    1
    68    12     9    1
    69     9    10    1
    70    27    26    1
    71    26    25    1
    72    10    19   am
    73    10    11    2
    74    19    20    1
    75    25    24    1
    76    24    23    1
    77    23    20    1
    78    20    21    1
    79    22    21    2
