@<TRIPOS>MOLECULE
tmp/1qaqA00.pdb
 214 210 0 0 0
SMALL
GASTEIGER

@<TRIPOS>ATOM
      1  N         22.6740   36.8540   19.1140 N.3     2  GLN2       -0.1231
      2  CA        21.2930   36.5930   19.5160 C.3     2  GLN2        0.1698
      3  C         20.3680   37.1490   18.4270 C.2     2  GLN2        0.2592
      4  O         20.5850   38.2530   17.9610 O.2     2  GLN2       -0.2718
      5  CB        20.9880   37.2940   20.8400 C.3     2  GLN2        0.0381
      6  CG        21.7860   36.7670   22.0050 C.3     2  GLN2        0.0905
      7  CD        21.5770   35.2830   22.2080 C.2     2  GLN2        0.2608
      8  OE1       20.4670   34.8360   22.5060 O.2     2  GLN2       -0.2717
      9  NE2       22.6420   34.5030   22.0310 N.am    2  GLN2       -0.0878
     10  N         19.3500   36.4010   18.0100 N.am    3  ASN3       -0.1960
     11  CA        18.4290   36.9020   17.0030 C.3     3  ASN3        0.1819
     12  C         17.0950   37.3230   17.6020 C.2     3  ASN3        0.2621
     13  O         16.8230   37.0150   18.7570 O.2     3  ASN3       -0.2715
     14  CB        18.2220   35.8780   15.8660 C.3     3  ASN3        0.1195
     15  CG        17.6660   34.5770   16.3840 C.2     3  ASN3        0.2630
     16  OD1       17.2610   34.4980   17.5580 O.2     3  ASN3       -0.2716
     17  ND2       17.6080   33.5740   15.5480 N.am    3  ASN3       -0.0877
     18  N         16.2560   38.0170   16.8320 N.am    4  PHE4       -0.1960
     19  CA        14.9600   38.4840   17.3470 C.3     4  PHE4        0.1771
     20  C         13.8440   38.4510   16.3020 C.2     4  PHE4        0.2619
     21  O         14.0960   38.4890   15.0820 O.2     4  PHE4       -0.2715
     22  CB        15.0740   39.9300   17.8310 C.3     4  PHE4        0.0574
     23  CG        16.1480   40.1540   18.8410 C.ar    4  PHE4       -0.0200
     24  CD1       15.8350   40.3320   20.1770 C.ar    4  PHE4       -0.0042
     25  CD2       17.4810   40.1840   18.4550 C.ar    4  PHE4       -0.0042
     26  CE1       16.8350   40.5440   21.1230 C.ar    4  PHE4       -0.0003
     27  CE2       18.4880   40.3890   19.3820 C.ar    4  PHE4       -0.0003
     28  CZ        18.1660   40.5720   20.7250 C.ar    4  PHE4       -0.0000
     29  N         12.6080   38.3890   16.7900 N.am    5  ILE5       -0.1977
     30  CA        11.4440   38.4140   15.9130 C.3     5  ILE5        0.1596
     31  C         10.7110   39.6780   16.3220 C.2     5  ILE5        0.2287
     32  O         10.0310   39.7200   17.3340 O.2     5  ILE5       -0.2864
     33  CB        10.5460   37.1760   16.0940 C.3     5  ILE5        0.0276
     34  CG1       11.2940   35.9280   15.6320 C.3     5  ILE5        0.0022
     35  CG2        9.2840   37.3240   15.2800 C.3     5  ILE5        0.0022
     36  CD1       10.4890   34.6460   15.7330 C.3     5  ILE5        0.0001
     37  N          8.9710   33.3020   30.6180 N.3    28  GLU28      -0.1231
     38  CA         9.4950   33.3790   29.2640 C.3    28  GLU28       0.1699
     39  C         11.0030   33.2710   29.3450 C.2    28  GLU28       0.2592
     40  O         11.6170   33.8490   30.2290 O.2    28  GLU28      -0.2718
     41  CB         9.1540   34.6950   28.5900 C.3    28  GLU28       0.0402
     42  CG         9.4840   34.6450   27.1040 C.3    28  GLU28       0.1161
     43  CD         9.4970   35.9990   26.4310 C.2    28  GLU28       0.3649
     44  OE1        8.6950   36.8670   26.8310 O.co2  28  GLU28      -0.2457
     45  OE2       10.2950   36.1730   25.4830 O.co2  28  GLU28      -0.2457
     46  N         11.6020   32.5310   28.4240 N.am   29  ILE29      -0.1966
     47  CA        13.0440   32.3660   28.4160 C.3    29  ILE29       0.1727
     48  C         13.6330   33.3240   27.3950 C.2    29  ILE29       0.2617
     49  O         13.5650   33.0730   26.1960 O.2    29  ILE29      -0.2715
     50  CB        13.4420   30.9340   28.0210 C.3    29  ILE29       0.0290
     51  CG1       12.7690   29.9350   28.9430 C.3    29  ILE29       0.0022
     52  CG2       14.9540   30.7640   28.0920 C.3    29  ILE29       0.0023
     53  CD1       13.1150   28.5030   28.6040 C.3    29  ILE29       0.0001
     54  N         14.1910   34.4310   27.8740 N.am   30  GLY30      -0.1940
     55  CA        14.8100   35.4060   26.9870 C.3    30  GLY30       0.2014
     56  C         13.8550   36.3790   26.3240 C.2    30  GLY30       0.2640
     57  O         13.4430   36.1880   25.1940 O.2    30  GLY30      -0.2714
     58  N         13.5340   37.4450   27.0280 N.am   31  SER31      -0.1935
     59  CA        12.6270   38.4480   26.5430 C.3    31  SER31       0.2055
     60  C         13.1600   39.1820   25.3240 C.2    31  SER31       0.2644
     61  O         12.4060   39.4960   24.4100 O.2    31  SER31      -0.2714
     62  CB        12.3830   39.4120   27.6690 C.3    31  SER31       0.2130
     63  OG        12.4870   38.6590   28.8770 O.3    31  SER31      -0.2179
     64  N         14.4600   39.4360   25.2880 N.am   32  GLY32      -0.1939
     65  CA        15.0160   40.1350   24.1460 C.3    32  GLY32       0.2014
     66  C         14.4750   41.5490   24.1230 C.2    32  GLY32       0.2639
     67  O         14.5010   42.2160   25.1540 O.2    32  GLY32      -0.2714
     68  N         13.9770   42.0130   22.9780 N.am   33  LYS33      -0.1963
     69  CA        13.4360   43.3710   22.8980 C.3    33  LYS33       0.1728
     70  C         12.0690   43.4320   23.5800 C.2    33  LYS33       0.2617
     71  O         11.4850   44.5060   23.7170 O.2    33  LYS33      -0.2715
     72  CB        13.2820   43.8130   21.4470 C.3    33  LYS33       0.0311
     73  CG        14.5250   43.6730   20.5930 C.3    33  LYS33       0.0038
     74  CD        15.6760   44.5760   21.0200 C.3    33  LYS33       0.0206
     75  CE        16.8780   44.3510   20.0930 C.3    33  LYS33       0.1093
     76  NZ        18.0220   45.2700   20.3440 N.3    33  LYS33      -0.1314
     77  N         11.5620   42.2720   23.9900 N.am   34  GLY34      -0.1940
     78  CA        10.2760   42.2070   24.6590 C.3    34  GLY34       0.2014
     79  C          9.0830   41.9690   23.7490 C.2    34  GLY34       0.2639
     80  O          7.9320   42.0190   24.1940 O.2    34  GLY34      -0.2714
     81  N          9.3440   41.6870   22.4790 N.am   35  HIS35      -0.1959
     82  CA         8.2690   41.4680   21.5200 C.3    35  HIS35       0.1787
     83  C          7.2530   40.3970   21.8490 C.2    35  HIS35       0.2620
     84  O          6.0580   40.6560   21.7780 O.2    35  HIS35      -0.2715
     85  CB         8.8550   41.2310   20.1410 C.3    35  HIS35       0.0785
     86  CG         9.5020   42.4460   19.5760 C.ar   35  HIS35       0.0821
     87  ND1       10.6690   42.9740   20.0940 N.ar   35  HIS35      -0.2267
     88  CD2        9.0980   43.3020   18.6130 C.ar   35  HIS35       0.1154
     89  CE1       10.9470   44.1000   19.4710 C.ar   35  HIS35       0.1986
     90  NE2       10.0120   44.3260   18.5670 N.ar   35  HIS35      -0.2212
     91  N          7.7040   39.1930   22.1820 N.am   36  PHE36      -0.1974
     92  CA         6.7590   38.1410   22.5450 C.3    36  PHE36       0.1639
     93  C          6.2150   38.4660   23.9230 C.2    36  PHE36       0.2290
     94  O          5.0560   38.1690   24.2160 O.2    36  PHE36      -0.2864
     95  CB         7.4280   36.7590   22.5810 C.3    36  PHE36       0.0560
     96  CG         7.5340   36.0870   21.2390 C.ar   36  PHE36      -0.0200
     97  CD1        6.3950   35.6230   20.5890 C.ar   36  PHE36      -0.0042
     98  CD2        8.7720   35.9200   20.6200 C.ar   36  PHE36      -0.0042
     99  CE1        6.4860   35.0000   19.3410 C.ar   36  PHE36      -0.0003
    100  CE2        8.8710   35.2960   19.3670 C.ar   36  PHE36      -0.0003
    101  CZ         7.7260   34.8370   18.7300 C.ar   36  PHE36      -0.0000
    102  N         12.6790   35.9540   32.0630 N.3    50  ILE50      -0.1231
    103  CA        14.0190   35.6330   32.5230 C.3    50  ILE50       0.1692
    104  C         15.0000   35.9260   31.4090 C.2    50  ILE50       0.2592
    105  O         15.1230   35.1600   30.4570 O.2    50  ILE50      -0.2718
    106  CB        14.1360   34.1550   32.9320 C.3    50  ILE50       0.0266
    107  CG1       13.0960   33.8370   34.0120 C.3    50  ILE50       0.0019
    108  CG2       15.5390   33.8770   33.4640 C.3    50  ILE50       0.0020
    109  CD1       13.1570   32.4350   34.5270 C.3    50  ILE50       0.0001
    110  N         15.6910   37.0530   31.5270 N.am   51  GLU51      -0.1966
    111  CA        16.6620   37.4690   30.5190 C.3    51  GLU51       0.1733
    112  C         18.0520   37.5900   31.1350 C.2    51  GLU51       0.2616
    113  O         18.2470   38.2660   32.1410 O.2    51  GLU51      -0.2715
    114  CB        16.2270   38.8060   29.8970 C.3    51  GLU51       0.0429
    115  CG        17.2390   39.4310   28.9540 C.3    51  GLU51       0.1163
    116  CD        17.5260   38.5770   27.7400 C.2    51  GLU51       0.3649
    117  OE1       16.5980   38.3350   26.9470 O.co2  51  GLU51      -0.2457
    118  OE2       18.6810   38.1450   27.5730 O.co2  51  GLU51      -0.2457
    119  N         19.0130   36.9190   30.5150 N.am   52  ILE52      -0.1963
    120  CA        20.3940   36.9200   30.9810 C.3    52  ILE52       0.1727
    121  C         21.0670   38.2750   30.7430 C.2    52  ILE52       0.2616
    122  O         21.6810   38.8320   31.6550 O.2    52  ILE52      -0.2715
    123  CB        21.2020   35.8060   30.2720 C.3    52  ILE52       0.0290
    124  CG1       22.5120   35.5510   31.0040 C.3    52  ILE52       0.0022
    125  CG2       21.4990   36.2000   28.8390 C.3    52  ILE52       0.0023
    126  CD1       23.2610   34.3700   30.4380 C.3    52  ILE52       0.0001
    127  N         20.9420   38.7920   29.5190 N.am   53  ASP53      -0.1971
    128  CA        21.5200   40.0770   29.1320 C.3    53  ASP53       0.1709
    129  C         20.8110   41.1850   29.9010 C.2    53  ASP53       0.2293
    130  O         19.5810   41.2910   29.8510 O.2    53  ASP53      -0.2864
    131  CB        21.3250   40.3010   27.6350 C.3    53  ASP53       0.1436
    132  CG        21.9900   41.5740   27.1350 C.2    53  ASP53       0.3671
    133  OD1       21.7240   42.6680   27.6860 O.co2  53  ASP53      -0.2456
    134  OD2       22.7750   41.4700   26.1690 O.co2  53  ASP53      -0.2456
    135  N         19.0100   44.0480   27.7210 N.3    56  LEU56      -0.1245
    136  CA        17.7580   43.5740   27.1550 C.3    56  LEU56       0.1561
    137  C         16.6640   43.5530   28.2200 C.2    56  LEU56       0.2260
    138  O         15.4840   43.7220   27.9040 O.2    56  LEU56      -0.2867
    139  CB        17.9430   42.1920   26.5270 C.3    56  LEU56       0.0270
    140  CG        18.7950   42.2070   25.2500 C.3    56  LEU56       0.0019
    141  CD1       19.0910   40.7830   24.7790 C.3    56  LEU56       0.0001
    142  CD2       18.0700   43.0030   24.1690 C.3    56  LEU56       0.0001
    143  N         18.4550   36.9970   35.1790 N.3    75  LYS75      -0.1231
    144  CA        19.1340   35.7580   35.5700 C.3    75  LYS75       0.1693
    145  C         19.4240   34.8520   34.3720 C.2    75  LYS75       0.2592
    146  O         19.0150   35.1360   33.2470 O.2    75  LYS75      -0.2718
    147  CB        18.2700   34.9840   36.5740 C.3    75  LYS75       0.0285
    148  CG        17.7010   35.8150   37.7280 C.3    75  LYS75       0.0035
    149  CD        18.7840   36.3660   38.6480 C.3    75  LYS75       0.0206
    150  CE        18.1780   37.2100   39.7670 C.3    75  LYS75       0.1093
    151  NZ        19.2060   37.7270   40.7190 N.3    75  LYS75      -0.1314
    152  N         20.1390   33.7630   34.6260 N.am   76  ASP76      -0.1960
    153  CA        20.4680   32.8030   33.5790 C.3    76  ASP76       0.1840
    154  C         19.4690   31.6280   33.6680 C.2    76  ASP76       0.2622
    155  O         19.3940   30.9500   34.6880 O.2    76  ASP76      -0.2715
    156  CB        21.9030   32.2800   33.7530 C.3    76  ASP76       0.1450
    157  CG        22.2230   31.1580   32.7510 C.2    76  ASP76       0.3671
    158  OD1       21.2390   30.4470   32.4120 O.co2  76  ASP76      -0.2456
    159  OD2       23.3780   30.9530   32.3870 O.co2  76  ASP76      -0.2456
    160  N         18.7080   31.3830   32.6010 N.am   77  ILE77      -0.1963
    161  CA        17.7180   30.3020   32.5890 C.3    77  ILE77       0.1727
    162  C         18.2790   28.9910   33.1510 C.2    77  ILE77       0.2616
    163  O         17.5990   28.2730   33.8930 O.2    77  ILE77      -0.2715
    164  CB        17.1880   30.0220   31.1650 C.3    77  ILE77       0.0290
    165  CG1       15.9870   29.0840   31.2420 C.3    77  ILE77       0.0022
    166  CG2       18.2610   29.3470   30.3240 C.3    77  ILE77       0.0023
    167  CD1       14.8740   29.6050   32.1310 C.3    77  ILE77       0.0001
    168  N         19.5240   28.6820   32.8070 N.am   78  LEU78      -0.1977
    169  CA        20.1350   27.4560   33.2810 C.3    78  LEU78       0.1596
    170  C         20.3110   27.4040   34.7980 C.2    78  LEU78       0.2287
    171  O         20.3300   26.3250   35.3990 O.2    78  LEU78      -0.2864
    172  CB        21.4690   27.2440   32.5680 C.3    78  LEU78       0.0297
    173  CG        21.2570   27.0200   31.0690 C.3    78  LEU78       0.0022
    174  CD1       22.5740   26.7130   30.3920 C.3    78  LEU78       0.0001
    175  CD2       20.2850   25.8600   30.8660 C.3    78  LEU78       0.0001
    176  N         11.6850   31.6680   22.6960 N.3    93  ASN93      -0.1225
    177  CA        12.2230   31.6760   21.3460 C.3    93  ASN93       0.1785
    178  C         13.7070   31.5620   21.6300 C.2    93  ASN93       0.2597
    179  O         14.4340   32.5380   21.5090 O.2    93  ASN93      -0.2718
    180  CB        11.9300   33.0100   20.6750 C.3    93  ASN93       0.1169
    181  CG        12.4810   33.0770   19.2840 C.2    93  ASN93       0.2627
    182  OD1       13.0810   32.1170   18.8080 O.2    93  ASN93      -0.2716
    183  ND2       12.2840   34.2030   18.6170 N.am   93  ASN93      -0.0877
    184  N         14.1450   30.3650   22.0080 N.am   94  ILE94      -0.1966
    185  CA        15.5300   30.1470   22.4140 C.3    94  ILE94       0.1712
    186  C         16.6320   29.9260   21.3740 C.2    94  ILE94       0.2458
    187  O         16.3840   29.4360   20.2710 O.2    94  ILE94      -0.2730
    188  CB        15.6030   28.9820   23.4340 C.3    94  ILE94       0.0289
    189  CG1       15.1670   27.6830   22.7620 C.3    94  ILE94       0.0022
    190  CG2       14.7100   29.2780   24.6410 C.3    94  ILE94       0.0023
    191  CD1       15.2710   26.4650   23.6580 C.3    94  ILE94       0.0001
    192  N         17.8810   30.2810   21.7390 N.am   95  PRO95      -0.2727
    193  CA        19.0980   30.1680   20.9340 C.3    95  PRO95       0.1402
    194  C         19.4370   28.7140   20.6410 C.2    95  PRO95       0.2269
    195  O         19.1550   27.8300   21.4450 O.2    95  PRO95      -0.2865
    196  CB        20.1560   30.8100   21.8290 C.3    95  PRO95       0.0296
    197  CG        19.3610   31.7620   22.6700 C.3    95  PRO95       0.0237
    198  CD        18.2210   30.8630   23.0460 C.3    95  PRO95       0.0939
    199  N         22.4010   26.6460   22.8820 N.3    98  ILE98      -0.1245
    200  CA        22.0360   26.0420   24.1630 C.3    98  ILE98       0.1561
    201  C         20.6400   25.4310   24.2210 C.2    98  ILE98       0.2260
    202  O         20.1010   25.2340   25.3110 O.2    98  ILE98      -0.2867
    203  CB        22.1710   27.0460   25.3480 C.3    98  ILE98       0.0252
    204  CG1       21.2670   28.2640   25.1140 C.3    98  ILE98       0.0019
    205  CG2       23.6300   27.4300   25.5360 C.3    98  ILE98       0.0019
    206  CD1       21.2250   29.2340   26.2730 C.3    98  ILE98       0.0001
    207  N         18.7510   24.0910   27.6260 N.3   102  ILE102     -0.1245
    208  CA        17.5560   24.7770   28.1020 C.3   102  ILE102      0.1561
    209  C         16.3840   23.8150   28.2220 C.2   102  ILE102      0.2260
    210  O         15.6870   23.7610   29.2420 O.2   102  ILE102     -0.2867
    211  CB        17.1370   25.9180   27.1450 C.3   102  ILE102      0.0252
    212  CG1       18.1710   27.0460   27.2020 C.3   102  ILE102      0.0019
    213  CG2       15.7270   26.4160   27.4930 C.3   102  ILE102      0.0019
    214  CD1       17.8300   28.2380   26.3130 C.3   102  ILE102      0.0001
@<TRIPOS>BOND
     1    21    20    2
     2    35    33    1
     3    17    15   am
     4    34    36    1
     5    34    33    1
     6    14    15    1
     7    14    11    1
     8    30    33    1
     9    30    31    1
    10    30    29    1
    11    20    29   am
    12    20    19    1
    13    31    32    2
    14    15    16    2
    15    18    19    1
    16    18    12   am
    17    11    12    1
    18    11    10    1
    19    19    22    1
    20    12    13    2
    21    22    23    1
    22     4     3    2
    23    10     3   am
    24     3     2    1
    25    25    23   ar
    26    25    27   ar
    27    90    88   ar
    28    90    89   ar
    29    88    86   ar
    30   183   181   am
    31   101    99   ar
    32   101   100   ar
    33   182   181    2
    34    23    24   ar
    35     1     2    1
    36   181   180    1
    37    99    97   ar
    38   100    98   ar
    39    27    28   ar
    40    89    87   ar
    41     2     5    1
    42    86    87   ar
    43    86    85    1
    44    75    76    1
    45    75    74    1
    46    85    82    1
    47    24    26   ar
    48   187   186    2
    49    97    96   ar
    50    73    74    1
    51    73    72    1
    52    98    96   ar
    53   194   193    1
    54   194   195    2
    55   180   177    1
    56    28    26   ar
    57     5     6    1
    58   193   192    1
    59   193   196    1
    60    96    95    1
    61   177   178    1
    62   177   176    1
    63   186   192   am
    64   186   185    1
    65    72    69    1
    66   179   178    2
    67    82    83    1
    68    82    81    1
    69   178   184   am
    70   192   198    1
    71    84    83    2
    72   196   197    1
    73    83    91   am
    74     6     7    1
    75   184   185    1
    76     9     7   am
    77    91    92    1
    78     7     8    2
    79   185   188    1
    80    81    79   am
    81    92    95    1
    82    92    93    1
    83   197   198    1
    84   189   188    1
    85   189   191    1
    86   199   200    1
    87    69    68    1
    88    69    70    1
    89    68    66   am
    90   188   190    1
    91    70    71    2
    92    70    77   am
    93    79    80    2
    94    79    78    1
    95    93    94    2
    96    77    78    1
    97    66    65    1
    98    66    67    2
    99    65    64    1
   100   200   201    1
   101   200   203    1
   102   142   140    1
   103   201   202    2
   104    61    60    2
   105   141   140    1
   106   204   203    1
   107   204   206    1
   108    57    56    2
   109   140   139    1
   110    64    60   am
   111    60    59    1
   112   203   205    1
   113    45    43   ar
   114   134   132   ar
   115    49    48    2
   116   214   212    1
   117    56    55    1
   118    56    58   am
   119    43    44   ar
   120    43    42    1
   121   139   136    1
   122    59    58    1
   123    59    62    1
   124   117   116   ar
   125    55    54    1
   126    42    41    1
   127   132   131    1
   128   132   133   ar
   129   211   212    1
   130   211   213    1
   131   211   208    1
   132   136   135    1
   133   136   137    1
   134    48    54   am
   135    48    47    1
   136   118   116   ar
   137   207   208    1
   138   131   128    1
   139    62    63    1
   140   116   115    1
   141   138   137    2
   142    50    52    1
   143    50    47    1
   144    50    51    1
   145   208   209    1
   146   209   210    2
   147    47    46    1
   148    46    39   am
   149    41    38    1
   150    53    51    1
   151   125   123    1
   152   115   114    1
   153   128   127    1
   154   128   129    1
   155    38    39    1
   156    38    37    1
   157    39    40    2
   158   127   121   am
   159   130   129    2
   160   114   111    1
   161   123   120    1
   162   123   124    1
   163   166   164    1
   164   174   173    1
   165   126   124    1
   166   105   104    2
   167   119   120    1
   168   119   112   am
   169   111   112    1
   170   111   110    1
   171   121   120    1
   172   121   122    2
   173   175   173    1
   174   173   172    1
   175   112   113    2
   176   164   165    1
   177   164   161    1
   178   165   167    1
   179   104   110   am
   180   104   103    1
   181   102   103    1
   182   159   157   ar
   183   158   157   ar
   184   103   106    1
   185   172   169    1
   186   161   160    1
   187   161   162    1
   188   160   154   am
   189   157   156    1
   190   168   162   am
   191   168   169    1
   192   106   108    1
   193   106   107    1
   194   162   163    2
   195   146   145    2
   196   169   170    1
   197   153   154    1
   198   153   156    1
   199   153   152    1
   200   154   155    2
   201   107   109    1
   202   145   152   am
   203   145   144    1
   204   170   171    2
   205   143   144    1
   206   144   147    1
   207   147   148    1
   208   148   149    1
   209   149   150    1
   210   150   151    1
