@<TRIPOS>MOLECULE
tmp/1qaxA01.pdb
 125 119 0 0 0
SMALL
GASTEIGER

@<TRIPOS>ATOM
      1  N         79.0970  135.3420  117.4700 N.3    79  GLU79      -0.1231
      2  CA        78.6620  136.3730  116.5280 C.3    79  GLU79       0.1699
      3  C         78.6730  135.8890  115.0830 C.2    79  GLU79       0.2592
      4  O         78.0720  136.5230  114.2240 O.2    79  GLU79      -0.2718
      5  CB        79.5500  137.6170  116.6650 C.3    79  GLU79       0.0402
      6  CG        80.8710  137.5580  115.9330 C.3    79  GLU79       0.1161
      7  CD        81.7840  136.4290  116.3980 C.2    79  GLU79       0.3649
      8  OE1       82.2960  135.6950  115.5250 O.co2  79  GLU79      -0.2457
      9  OE2       82.0170  136.2900  117.6200 O.co2  79  GLU79      -0.2457
     10  N         79.4270  134.8200  114.8160 N.am   80  GLU80      -0.1966
     11  CA        79.5620  134.2280  113.4820 C.3    80  GLU80       0.1718
     12  C         78.3540  133.3600  113.1660 C.2    80  GLU80       0.2458
     13  O         77.8650  132.6270  114.0250 O.2    80  GLU80      -0.2730
     14  CB        80.8570  133.3900  113.4040 C.3    80  GLU80       0.0428
     15  CG        81.1240  132.6140  112.0940 C.3    80  GLU80       0.1163
     16  CD        82.4080  131.7850  112.1470 C.2    80  GLU80       0.3649
     17  OE1       83.0730  131.7620  113.2520 O.co2  80  GLU80      -0.2457
     18  OE2       82.8520  131.1680  111.1090 O.co2  80  GLU80      -0.2457
     19  N         77.8170  133.4800  111.9490 N.am   81  PRO81      -0.2727
     20  CA        76.6520  132.6890  111.5320 C.3    81  PRO81       0.1402
     21  C         77.0200  131.2750  111.0750 C.2    81  PRO81       0.2269
     22  O         78.1970  130.9540  110.9010 O.2    81  PRO81      -0.2865
     23  CB        76.0740  133.5220  110.3870 C.3    81  PRO81       0.0296
     24  CG        77.2710  134.1490  109.7920 C.3    81  PRO81       0.0237
     25  CD        78.0750  134.5750  111.0020 C.3    81  PRO81       0.0939
     26  N         92.8500  125.5950  110.6630 N.3   261  THR261     -0.1218
     27  CA        91.4920  125.9370  110.2510 C.3   261  THR261      0.1862
     28  C         90.5210  124.8530  110.7220 C.2   261  THR261      0.2287
     29  O         89.3860  125.1410  111.1010 O.2   261  THR261     -0.2866
     30  CB        91.3900  125.9510  108.6880 C.3   261  THR261      0.1770
     31  OG1       92.4580  126.7270  108.1300 O.3   261  THR261     -0.2211
     32  CG2       90.0640  126.5330  108.2220 C.3   261  THR261      0.0375
     33  N         90.0410  125.2430  114.3470 N.3   264  LYS264     -0.1245
     34  CA        89.3190  126.4880  114.5750 C.3   264  LYS264      0.1561
     35  C         87.8240  126.2040  114.5010 C.2   264  LYS264      0.2260
     36  O         87.0350  126.7740  115.2560 O.2   264  LYS264     -0.2867
     37  CB        89.7230  127.5310  113.5240 C.3   264  LYS264      0.0271
     38  CG        89.0710  128.9040  113.6730 C.3   264  LYS264      0.0035
     39  CD        87.7650  129.0060  112.9010 C.3   264  LYS264      0.0206
     40  CE        86.9660  130.2250  113.3260 C.3   264  LYS264      0.1093
     41  NZ        85.6940  130.3470  112.5650 N.3   264  LYS264     -0.1314
     42  N         81.9730  125.9800  100.5900 N.3   374  ILE374     -0.1231
     43  CA        81.4760  126.3710  101.9040 C.3   374  ILE374      0.1692
     44  C         80.6420  127.6340  101.7780 C.2   374  ILE374      0.2591
     45  O         79.8570  127.9690  102.6600 O.2   374  ILE374     -0.2718
     46  CB        82.6550  126.6380  102.8760 C.3   374  ILE374      0.0266
     47  CG1       82.1530  127.0690  104.2550 C.3   374  ILE374      0.0019
     48  CG2       83.6030  127.6720  102.2960 C.3   374  ILE374      0.0020
     49  CD1       81.6430  125.9270  105.1030 C.3   374  ILE374      0.0001
     50  N         80.7890  128.3090  100.6470 N.am  375  GLN375     -0.1979
     51  CA        80.0710  129.5480  100.3980 C.3   375  GLN375      0.1601
     52  C         78.5670  129.3540  100.1620 C.2   375  GLN375      0.2287
     53  O         77.7870  130.3100  100.2520 O.2   375  GLN375     -0.2864
     54  CB        80.7500  130.2840   99.2420 C.3   375  GLN375      0.0394
     55  CG        82.1860  130.6060   99.5720 C.3   375  GLN375      0.0908
     56  CD        82.3000  131.3670  100.8880 C.2   375  GLN375      0.2608
     57  OE1       82.5400  132.5780  100.8820 O.2   375  GLN375     -0.2717
     58  NE2       82.0960  130.6710  102.0180 N.am  375  GLN375     -0.0878
     59  N         77.1040  128.9480  104.3290 N.3   378  HIS378     -0.1226
     60  CA        77.5530  129.9870  105.2500 C.3   378  HIS378      0.1752
     61  C         77.1090  131.3800  104.8070 C.2   378  HIS378      0.2595
     62  O         76.6190  132.1700  105.6190 O.2   378  HIS378     -0.2718
     63  CB        79.0810  129.9500  105.3650 C.3   378  HIS378      0.0759
     64  CG        79.6420  130.9190  106.3670 C.ar  378  HIS378      0.0818
     65  ND1       79.7340  130.6580  107.7090 N.ar  378  HIS378     -0.2268
     66  CD2       80.1550  132.1590  106.1820 C.ar  378  HIS378      0.1154
     67  CE1       80.2910  131.7230  108.2950 C.ar  378  HIS378      0.1986
     68  NE2       80.5650  132.6620  107.4100 N.ar  378  HIS378     -0.2212
     69  N         77.3140  131.6870  103.5280 N.am  379  MET379     -0.1979
     70  CA        76.9620  132.9910  102.9970 C.3   379  MET379      0.1605
     71  C         75.4550  133.2410  102.9760 C.2   379  MET379      0.2287
     72  O         75.0350  134.3900  102.9500 O.2   379  MET379     -0.2864
     73  CB        77.5840  133.1890  101.6110 C.3   379  MET379      0.0413
     74  CG        79.1040  133.0790  101.5880 C.3   379  MET379      0.0598
     75  SD        79.9690  134.3360  102.5370 S.3   379  MET379     -0.1393
     76  CE        80.0420  135.6620  101.3500 C.3   379  MET379      0.0692
     77  N         75.0890  134.6280  106.2870 N.3   382  HIS382     -0.1241
     78  CA        75.9060  135.8280  106.3130 C.3   382  HIS382      0.1621
     79  C         75.4670  136.8210  105.2450 C.2   382  HIS382      0.2264
     80  O         76.1930  137.7670  104.9280 O.2   382  HIS382     -0.2867
     81  CB        77.3770  135.4670  106.1100 C.3   382  HIS382      0.0745
     82  CG        78.3290  136.4900  106.6510 C.ar  382  HIS382      0.0817
     83  ND1       79.3520  136.1700  107.5190 N.ar  382  HIS382     -0.2268
     84  CD2       78.4210  137.8210  106.4380 C.ar  382  HIS382      0.1154
     85  CE1       80.0340  137.2620  107.8150 C.ar  382  HIS382      0.1986
     86  NE2       79.4930  138.2790  107.1690 N.ar  382  HIS382     -0.2212
     87  N         76.7030  141.1040  105.4100 N.3   386  ILE386     -0.1245
     88  CA        77.3200  141.6050  104.1890 C.3   386  ILE386      0.1561
     89  C         76.4560  142.6610  103.4990 C.2   386  ILE386      0.2260
     90  O         76.9700  143.4610  102.7150 O.2   386  ILE386     -0.2867
     91  CB        77.6690  140.4370  103.2140 C.3   386  ILE386      0.0252
     92  CG1       78.5580  140.9280  102.0760 C.3   386  ILE386      0.0019
     93  CG2       76.4180  139.7950  102.6550 C.3   386  ILE386      0.0019
     94  CD1       79.1420  139.7910  101.2620 C.3   386  ILE386      0.0001
     95  N         77.4460  145.9720  104.8330 N.3   389  VAL389     -0.1245
     96  CA        78.7390  146.4120  104.3120 C.3   389  VAL389      0.1561
     97  C         78.5650  147.2310  103.0210 C.2   389  VAL389      0.2260
     98  O         79.3820  148.1130  102.7310 O.2   389  VAL389     -0.2867
     99  CB        79.7020  145.2000  104.0520 C.3   389  VAL389      0.0252
    100  CG1       81.1020  145.6810  103.6780 C.3   389  VAL389      0.0019
    101  CG2       79.7720  144.3110  105.2820 C.3   389  VAL389      0.0019
    102  N         77.2420  137.8440   97.4600 N.3   411  ARG411     -0.1231
    103  CA        78.5710  138.4350   97.6510 C.3   411  ARG411      0.1694
    104  C         78.5260  139.9540   97.4960 C.2   411  ARG411      0.2592
    105  O         77.7610  140.4740   96.6950 O.2   411  ARG411     -0.2718
    106  CB        79.6020  137.8290   96.6950 C.3   411  ARG411      0.0321
    107  CG        79.3270  138.0480   95.2290 C.3   411  ARG411      0.0489
    108  CD        80.4730  137.5190   94.3780 C.3   411  ARG411      0.2205
    109  NE        80.1600  137.6150   92.9570 N.pl3 411  ARG411     -0.0865
    110  CZ        79.5860  136.6460   92.2500 C.cat 411  ARG411      0.5346
    111  NH1       79.2680  135.4920   92.8330 N.pl3 411  ARG411      0.1354
    112  NH2       79.3040  136.8440   90.9680 N.pl3 411  ARG411      0.1354
    113  N         79.3740  140.6510   98.2460 N.am  412  ALA412     -0.1966
    114  CA        79.4190  142.1080   98.2240 C.3   412  ALA412      0.1728
    115  C         79.5880  142.6470   96.8180 C.2   412  ALA412      0.2616
    116  O         79.0960  143.7370   96.5110 O.2   412  ALA412     -0.2715
    117  CB        80.5340  142.6190   99.1240 C.3   412  ALA412      0.0334
    118  N         80.3060  141.9040   95.9770 N.am  413  ASP413     -0.1971
    119  CA        80.5380  142.3020   94.5910 C.3   413  ASP413      0.1709
    120  C         79.1870  142.4720   93.8950 C.2   413  ASP413      0.2293
    121  O         79.0060  143.3650   93.0670 O.2   413  ASP413     -0.2864
    122  CB        81.3880  141.2420   93.8700 C.3   413  ASP413      0.1436
    123  CG        81.9580  141.7310   92.5440 C.2   413  ASP413      0.3671
    124  OD1       82.5570  142.8290   92.5220 O.co2 413  ASP413     -0.2456
    125  OD2       81.8310  141.0010   91.5330 O.co2 413  ASP413     -0.2456
@<TRIPOS>BOND
     1   112   110    1
     2   125   123   ar
     3   110   111    1
     4   110   109    2
     5   124   123   ar
     6   123   122    1
     7   109   108    1
     8   121   120    2
     9   122   119    1
    10   120   119    1
    11   108   107    1
    12   119   118    1
    13   107   106    1
    14   118   115   am
    15   116   115    2
    16   106   103    1
    17   105   104    2
    18   115   114    1
    19   102   103    1
    20   104   103    1
    21   104   113   am
    22   114   113    1
    23   114   117    1
    24    54    55    1
    25    54    51    1
    26    55    56    1
    27    52    53    2
    28    52    51    1
    29    51    50    1
    30    42    43    1
    31    50    44   am
    32    57    56    2
    33    56    58   am
    34    94    92    1
    35    76    75    1
    36    74    73    1
    37    74    75    1
    38    73    70    1
    39    44    43    1
    40    44    45    2
    41    43    46    1
    42    92    91    1
    43    48    46    1
    44    93    91    1
    45    90    89    2
    46    98    97    2
    47    46    47    1
    48    72    71    2
    49    71    70    1
    50    70    69    1
    51    97    96    1
    52    91    88    1
    53    89    88    1
    54    69    61   am
    55   100    99    1
    56    99    96    1
    57    99   101    1
    58    88    87    1
    59    47    49    1
    60    96    95    1
    61    59    60    1
    62    61    60    1
    63    61    62    2
    64    80    79    2
    65    79    78    1
    66    60    63    1
    67    63    64    1
    68    81    78    1
    69    81    82    1
    70    66    64   ar
    71    66    68   ar
    72    77    78    1
    73    64    65   ar
    74    84    82   ar
    75    84    86   ar
    76    82    83   ar
    77    86    85   ar
    78    68    67   ar
    79    83    85   ar
    80    65    67   ar
    81    31    30    1
    82    32    30    1
    83    30    27    1
    84    24    23    1
    85    24    25    1
    86    27    26    1
    87    27    28    1
    88    23    20    1
    89    28    29    2
    90    22    21    2
    91    25    19    1
    92    21    20    1
    93    18    16   ar
    94    20    19    1
    95    19    12   am
    96    15    16    1
    97    15    14    1
    98    16    17   ar
    99    41    40    1
   100    39    40    1
   101    39    38    1
   102    12    11    1
   103    12    13    2
   104    14    11    1
   105    11    10    1
   106    37    38    1
   107    37    34    1
   108     4     3    2
   109    33    34    1
   110    35    34    1
   111    35    36    2
   112    10     3   am
   113     3     2    1
   114     8     7   ar
   115     6     7    1
   116     6     5    1
   117     7     9   ar
   118     2     5    1
   119     2     1    1
