@<TRIPOS>MOLECULE
tmp/1qayB00.pdb
 171 161 0 0 0
SMALL
GASTEIGER

@<TRIPOS>ATOM
      1  N         86.6780  139.2560   91.9450 N.3   143  ASP143     -0.1239
      2  CA        86.5490  140.3710   92.8790 C.3   143  ASP143      0.1674
      3  C         87.1930  141.6390   92.3270 C.2   143  ASP143      0.2266
      4  O         88.2570  142.0620   92.7820 O.2   143  ASP143     -0.2867
      5  CB        87.1570  140.0120   94.2350 C.3   143  ASP143      0.1410
      6  CG        86.4470  140.6920   95.3880 C.2   143  ASP143      0.3668
      7  OD1       86.1350  141.8960   95.2830 O.co2 143  ASP143     -0.2456
      8  OD2       86.1720  140.0170   96.3990 O.co2 143  ASP143     -0.2456
      9  N         86.1630  144.8110   92.6000 N.3   145  LEU145     -0.1231
     10  CA        86.1550  145.9020   93.5730 C.3   145  LEU145      0.1693
     11  C         87.3600  145.8600   94.5100 C.2   145  LEU145      0.2591
     12  O         87.8550  146.9050   94.9380 O.2   145  LEU145     -0.2718
     13  CB        84.8430  145.8650   94.3680 C.3   145  LEU145      0.0284
     14  CG        84.5360  146.9990   95.3600 C.3   145  LEU145      0.0019
     15  CD1       85.2110  146.7500   96.7070 C.3   145  LEU145      0.0001
     16  CD2       84.9000  148.3520   94.7610 C.3   145  LEU145      0.0001
     17  N         87.8000  144.6570   94.8650 N.am  146  LEU146     -0.1980
     18  CA        88.9440  144.5010   95.7550 C.3   146  LEU146      0.1596
     19  C         90.2040  145.1100   95.1520 C.2   146  LEU146      0.2287
     20  O         91.0000  145.7240   95.8650 O.2   146  LEU146     -0.2864
     21  CB        89.1750  143.0260   96.0730 C.3   146  LEU146      0.0297
     22  CG        90.1990  142.7300   97.1680 C.3   146  LEU146      0.0022
     23  CD1       89.7060  143.2630   98.5050 C.3   146  LEU146      0.0001
     24  CD2       90.4600  141.2370   97.2430 C.3   146  LEU146      0.0001
     25  N         90.4880  148.7910   95.4550 N.3   149  LEU149     -0.1245
     26  CA        90.9750  149.2330   96.7550 C.3   149  LEU149      0.1561
     27  C         92.4510  148.8920   96.9630 C.2   149  LEU149      0.2260
     28  O         93.0360  149.2500   97.9900 O.2   149  LEU149     -0.2867
     29  CB        90.1210  148.6350   97.8790 C.3   149  LEU149      0.0270
     30  CG        88.7670  149.3080   98.1490 C.3   149  LEU149      0.0019
     31  CD1       87.8940  149.2960   96.9020 C.3   149  LEU149      0.0001
     32  CD2       88.0590  148.6240   99.3020 C.3   149  LEU149      0.0001
     33  N         93.9350  140.7540  100.9950 N.3   178  VAL178     -0.1231
     34  CA        92.6770  141.3530  101.3990 C.3   178  VAL178      0.1692
     35  C         93.0420  142.7720  101.8370 C.2   178  VAL178      0.2592
     36  O         94.2050  143.1580  101.7190 O.2   178  VAL178     -0.2718
     37  CB        92.0150  140.5610  102.5560 C.3   178  VAL178      0.0266
     38  CG1       91.7170  139.1410  102.1070 C.3   178  VAL178      0.0020
     39  CG2       92.9160  140.5490  103.7760 C.3   178  VAL178      0.0020
     40  N         92.0910  143.5720  102.2930 N.am  179  ARG179     -0.1966
     41  CA        92.4560  144.9220  102.7050 C.3   179  ARG179      0.1729
     42  C         92.1390  145.1690  104.1710 C.2   179  ARG179      0.2616
     43  O         92.9700  144.9110  105.0420 O.2   179  ARG179     -0.2715
     44  CB        91.7800  145.9630  101.8120 C.3   179  ARG179      0.0348
     45  CG        92.2050  145.9290  100.3510 C.3   179  ARG179      0.0492
     46  CD        93.3450  146.8950  100.0640 C.3   179  ARG179      0.2205
     47  NE        94.6020  146.5330  100.7210 N.pl3 179  ARG179     -0.0865
     48  CZ        95.5890  147.3900  100.9670 C.cat 179  ARG179      0.5346
     49  NH1       95.4680  148.6650  100.6170 N.pl3 179  ARG179      0.1354
     50  NH2       96.7010  146.9700  101.5540 N.pl3 179  ARG179      0.1354
     51  N         90.9500  145.6940  104.4370 N.am  180  ASP180     -0.1957
     52  CA        90.5230  145.9610  105.8020 C.3   180  ASP180      0.1840
     53  C         89.5670  144.8780  106.3000 C.2   180  ASP180      0.2622
     54  O         88.9040  145.0420  107.3260 O.2   180  ASP180     -0.2715
     55  CB        89.8930  147.3530  105.9070 C.3   180  ASP180      0.1450
     56  CG        90.8350  148.4530  105.4420 C.2   180  ASP180      0.3671
     57  OD1       91.9820  148.5160  105.9350 O.co2 180  ASP180     -0.2456
     58  OD2       90.4320  149.2480  104.5680 O.co2 180  ASP180     -0.2456
     59  N         89.4840  143.7850  105.5460 N.am  181  ALA181     -0.1963
     60  CA        88.6390  142.6500  105.9040 C.3   181  ALA181      0.1728
     61  C         89.5100  141.4690  106.3180 C.2   181  ALA181      0.2616
     62  O         90.6720  141.3760  105.9110 O.2   181  ALA181     -0.2715
     63  CB        87.7500  142.2480  104.7290 C.3   181  ALA181      0.0334
     64  N         88.9560  140.5860  107.1460 N.am  182  MET182     -0.1963
     65  CA        89.6740  139.3920  107.5900 C.3   182  MET182      0.1736
     66  C         90.0480  138.5520  106.3680 C.2   182  MET182      0.2617
     67  O         91.0620  137.8470  106.3630 O.2   182  MET182     -0.2715
     68  CB        88.8090  138.5580  108.5430 C.3   182  MET182      0.0427
     69  CG        89.5880  137.4840  109.3010 C.3   182  MET182      0.0599
     70  SD        88.5730  136.0940  109.8440 S.3   182  MET182     -0.1393
     71  CE        89.0150  134.8470  108.6250 C.3   182  MET182      0.0692
     72  N         89.2030  138.6280  105.3440 N.am  183  GLY183     -0.1940
     73  CA        89.4430  137.9190  104.0980 C.3   183  GLY183      0.2014
     74  C         88.7870  136.5580  103.9560 C.2   183  GLY183      0.2639
     75  O         88.8740  135.9640  102.8830 O.2   183  GLY183     -0.2714
     76  N         88.1620  136.0510  105.0150 N.am  184  ALA184     -0.1963
     77  CA        87.5140  134.7350  104.9830 C.3   184  ALA184      0.1728
     78  C         86.7020  134.4790  103.7140 C.2   184  ALA184      0.2616
     79  O         87.0470  133.6120  102.9140 O.2   184  ALA184     -0.2715
     80  CB        86.6260  134.5550  106.2040 C.3   184  ALA184      0.0334
     81  N         85.6210  135.2320  103.5520 N.am  185  ASN185     -0.1958
     82  CA        84.7270  135.0880  102.4080 C.3   185  ASN185      0.1819
     83  C         85.3560  135.5330  101.0860 C.2   185  ASN185      0.2621
     84  O         85.1220  134.9140  100.0460 O.2   185  ASN185     -0.2715
     85  CB        83.4200  135.8470  102.6640 C.3   185  ASN185      0.1195
     86  CG        82.5810  135.2180  103.7690 C.2   185  ASN185      0.2630
     87  OD1       82.7590  134.0490  104.1210 O.2   185  ASN185     -0.2716
     88  ND2       81.6350  135.9850  104.2990 N.am  185  ASN185     -0.0877
     89  N         86.1280  136.6170  101.1220 N.am  186  THR186     -0.1951
     90  CA        86.7900  137.1280   99.9220 C.3   186  THR186      0.1897
     91  C         87.6880  136.0580   99.3010 C.2   186  THR186      0.2313
     92  O         87.6960  135.8630   98.0850 O.2   186  THR186     -0.2863
     93  CB        87.6780  138.3650  100.2370 C.3   186  THR186      0.1794
     94  OG1       86.8700  139.4470  100.7130 O.3   186  THR186     -0.2208
     95  CG2       88.4400  138.8190   98.9900 C.3   186  THR186      0.0378
     96  N         87.7500  132.6280  100.1580 N.3   188  ASN188     -0.1240
     97  CA        86.9850  131.4010   99.9020 C.3   188  ASN188      0.1653
     98  C         86.3240  131.3890   98.5220 C.2   188  ASN188      0.2266
     99  O         86.2210  130.3350   97.8840 O.2   188  ASN188     -0.2867
    100  CB        85.9190  131.1940  100.9880 C.3   188  ASN188      0.1155
    101  CG        86.5000  130.6760  102.2980 C.2   188  ASN188      0.2627
    102  OD1       87.7050  130.4450  102.4140 O.2   188  ASN188     -0.2716
    103  ND2       85.6360  130.4730  103.2910 N.am  188  ASN188     -0.0877
    104  N         89.1190  126.1350  100.9470 N.3   210  ILE210     -0.1231
    105  CA        88.9100  126.9690  102.1160 C.3   210  ILE210      0.1692
    106  C         90.1780  127.7350  102.4750 C.2   210  ILE210      0.2591
    107  O         91.2730  127.3720  102.0490 O.2   210  ILE210     -0.2718
    108  CB        88.4680  126.0800  103.3160 C.3   210  ILE210      0.0266
    109  CG1       87.8920  126.9370  104.4420 C.3   210  ILE210      0.0019
    110  CG2       89.6330  125.2200  103.8150 C.3   210  ILE210      0.0020
    111  CD1       86.5590  127.5490  104.1090 C.3   210  ILE210      0.0001
    112  N         90.0150  128.8210  103.2210 N.am  211  LEU211     -0.1980
    113  CA        91.1490  129.6230  103.6560 C.3   211  LEU211      0.1596
    114  C         91.8630  128.9060  104.7940 C.2   211  LEU211      0.2287
    115  O         91.3280  127.9590  105.3730 O.2   211  LEU211     -0.2864
    116  CB        90.6860  131.0040  104.1510 C.3   211  LEU211      0.0297
    117  CG        90.1520  131.0890  105.5890 C.3   211  LEU211      0.0022
    118  CD1       90.1720  132.5200  106.0760 C.3   211  LEU211      0.0001
    119  CD2       88.7540  130.5080  105.6810 C.3   211  LEU211      0.0001
    120  N         93.5130  129.5520  108.4500 N.3   213  ASN213     -0.1240
    121  CA        93.5490  130.5040  109.5410 C.3   213  ASN213      0.1653
    122  C         94.9740  130.7440  110.0300 C.2   213  ASN213      0.2266
    123  O         95.2230  131.6760  110.8010 O.2   213  ASN213     -0.2867
    124  CB        92.7140  130.0070  110.6870 C.3   213  ASN213      0.1155
    125  CG        91.2250  130.2580  110.5140 C.2   213  ASN213      0.2627
    126  OD1       90.7370  131.3670  110.7380 O.2   213  ASN213     -0.2716
    127  ND2       90.4970  129.2300  110.1130 N.am  213  ASN213     -0.0877
    128  N         85.9730  137.6070  114.9070 N.3   280  ASP280     -0.1239
    129  CA        85.9870  136.1850  115.2540 C.3   280  ASP280      0.1674
    130  C         87.2240  135.9050  116.1210 C.2   280  ASP280      0.2266
    131  O         88.3400  135.8250  115.6070 O.2   280  ASP280     -0.2867
    132  CB        86.0050  135.3450  113.9530 C.3   280  ASP280      0.1410
    133  CG        86.2420  133.8530  114.2000 C.2   280  ASP280      0.3668
    134  OD1       87.2620  133.5510  114.8540 O.co2 280  ASP280     -0.2456
    135  OD2       85.4420  133.0020  113.7570 O.co2 280  ASP280     -0.2456
    136  N         87.9770  133.2200  117.6980 N.3   282  ARG282     -0.1231
    137  CA        88.4380  131.8520  117.4960 C.3   282  ARG282      0.1694
    138  C         89.4730  131.7210  116.3810 C.2   282  ARG282      0.2591
    139  O         90.4010  130.9150  116.4790 O.2   282  ARG282     -0.2718
    140  CB        87.2350  130.9460  117.2260 C.3   282  ARG282      0.0321
    141  CG        86.4740  130.5630  118.4970 C.3   282  ARG282      0.0489
    142  CD        84.9710  130.4690  118.2700 C.3   282  ARG282      0.2205
    143  NE        84.3720  131.7840  118.0470 N.pl3 282  ARG282     -0.0865
    144  CZ        83.9600  132.2340  116.8650 C.cat 282  ARG282      0.5346
    145  NH1       84.0700  131.4740  115.7810 N.pl3 282  ARG282      0.1354
    146  NH2       83.4850  133.4650  116.7600 N.pl3 282  ARG282      0.1354
    147  N         89.3300  132.5370  115.3390 N.am  283  ALA283     -0.1980
    148  CA        90.2600  132.5160  114.2140 C.3   283  ALA283      0.1597
    149  C         91.6140  133.0100  114.7200 C.2   283  ALA283      0.2287
    150  O         92.6640  132.5120  114.3210 O.2   283  ALA283     -0.2864
    151  CB        89.7800  133.4580  113.1190 C.3   283  ALA283      0.0319
    152  N         85.5380  145.7550  108.0940 N.3   325  VAL325     -0.1231
    153  CA        84.3690  145.7110  107.2150 C.3   325  VAL325      0.1692
    154  C         83.6520  144.3600  107.2650 C.2   325  VAL325      0.2593
    155  O         82.7620  144.0990  106.4560 O.2   325  VAL325     -0.2718
    156  CB        84.7540  146.0310  105.7480 C.3   325  VAL325      0.0266
    157  CG1       85.3760  147.4140  105.6570 C.3   325  VAL325      0.0020
    158  CG2       85.7120  144.9870  105.2000 C.3   325  VAL325      0.0020
    159  N         84.0320  143.5280  108.2320 N.am  326  GLY326     -0.1942
    160  CA        83.4310  142.2120  108.3870 C.3   326  GLY326      0.2014
    161  C         81.9320  142.2420  108.6220 C.2   326  GLY326      0.2639
    162  O         81.3330  143.3170  108.7380 O.2   326  GLY326     -0.2714
    163  N         81.3320  141.0570  108.6990 N.am  327  GLY327     -0.1939
    164  CA        79.9000  140.9380  108.9090 C.3   327  GLY327      0.2014
    165  C         79.4030  141.4820  110.2370 C.2   327  GLY327      0.2638
    166  O         78.5950  142.4120  110.2590 O.2   327  GLY327     -0.2714
    167  N         79.8520  140.8840  111.3360 N.am  328  ALA328     -0.1977
    168  CA        79.4340  141.2800  112.6830 C.3   328  ALA328      0.1597
    169  C         79.9840  142.6330  113.1370 C.2   328  ALA328      0.2287
    170  O         79.3960  143.2730  114.0130 O.2   328  ALA328     -0.2864
    171  CB        79.8120  140.2000  113.6830 C.3   328  ALA328      0.0319
@<TRIPOS>BOND
     1     1     2    1
     2     3     4    2
     3     3     2    1
     4     9    10    1
     5     2     5    1
     6    10    13    1
     7    10    11    1
     8     5     6    1
     9    13    14    1
    10    11    17   am
    11    11    12    2
    12    16    14    1
    13    17    18    1
    14    19    18    1
    15    19    20    2
    16     7     6   ar
    17    14    15    1
    18     6     8   ar
    19    25    26    1
    20    18    21    1
    21    21    22    1
    22    26    27    1
    23    26    29    1
    24    31    30    1
    25    27    28    2
    26    22    24    1
    27    22    23    1
    28    29    30    1
    29    99    98    2
    30    92    91    2
    31    30    32    1
    32    98    97    1
    33    95    93    1
    34    91    90    1
    35    97    96    1
    36    97   100    1
    37    90    93    1
    38    90    89    1
    39    84    83    2
    40    46    45    1
    41    46    47    1
    42    93    94    1
    43    45    44    1
    44    49    48    1
    45    47    48    2
    46   104   105    1
    47    48    50    1
    48   100   101    1
    49    33    34    1
    50    83    89   am
    51    83    82    1
    52    34    35    1
    53    34    37    1
    54    36    35    2
    55    44    41    1
    56    35    40   am
    57   107   106    2
    58    38    37    1
    59   105   106    1
    60   105   108    1
    61    40    41    1
    62   101   102    2
    63   101   103   am
    64    82    85    1
    65    82    81    1
    66   106   112   am
    67    37    39    1
    68    85    86    1
    69    41    42    1
    70    75    74    2
    71    79    78    2
    72   112   113    1
    73   108   110    1
    74   108   109    1
    75    81    78   am
    76   113   116    1
    77   113   114    1
    78    78    77    1
    79    86    87    2
    80    86    88   am
    81    74    73    1
    82    74    76   am
    83    73    72    1
    84   111   109    1
    85   116   117    1
    86    42    51   am
    87    42    43    2
    88    51    52    1
    89    58    56   ar
    90    63    60    1
    91   114   115    2
    92    77    76    1
    93    77    80    1
    94   158   156    1
    95    72    66   am
    96    56    55    1
    97    56    57   ar
    98    59    60    1
    99    59    53   am
   100   117   119    1
   101   117   118    1
   102   157   156    1
   103   156   153    1
   104    52    55    1
   105    52    53    1
   106    60    61    1
   107    62    61    2
   108    53    54    2
   109    61    64   am
   110    67    66    2
   111    66    65    1
   112   155   154    2
   113    64    65    1
   114   153   154    1
   115   153   152    1
   116   154   159   am
   117    65    68    1
   118   159   160    1
   119   160   161    1
   120   120   121    1
   121    68    69    1
   122   161   163   am
   123   161   162    2
   124    71    70    1
   125   163   164    1
   126   164   165    1
   127    69    70    1
   128   121   122    1
   129   121   124    1
   130   122   123    2
   131   127   125   am
   132   165   166    2
   133   165   167   am
   134   125   124    1
   135   125   126    2
   136   167   168    1
   137   168   169    1
   138   168   171    1
   139   151   148    1
   140   169   170    2
   141   135   133   ar
   142   132   133    1
   143   132   129    1
   144   133   134   ar
   145   148   149    1
   146   148   147    1
   147   150   149    2
   148   128   129    1
   149   129   130    1
   150   147   138   am
   151   131   130    2
   152   145   144    1
   153   138   139    2
   154   138   137    1
   155   146   144    1
   156   144   143    2
   157   140   137    1
   158   140   141    1
   159   137   136    1
   160   143   142    1
   161   142   141    1
