@<TRIPOS>MOLECULE
tmp/1qayA01.pdb
 114 106 0 0 0
SMALL
GASTEIGER

@<TRIPOS>ATOM
      1  N         79.2560  134.6580  114.7040 N.3    80  GLU80      -0.1245
      2  CA        79.4180  133.9920  113.4120 C.3    80  GLU80       0.1567
      3  C         78.2280  133.0880  113.0820 C.2    80  GLU80       0.2260
      4  O         77.8510  132.2360  113.8880 O.2    80  GLU80      -0.2867
      5  CB        80.7110  133.1620  113.4180 C.3    80  GLU80       0.0388
      6  CG        81.0600  132.4670  112.1110 C.3    80  GLU80       0.1160
      7  CD        82.2750  131.5570  112.2490 C.2    80  GLU80       0.3649
      8  OE1       82.8720  131.4860  113.3900 O.co2  80  GLU80      -0.2457
      9  OE2       82.5950  130.7510  111.2980 O.co2  80  GLU80      -0.2457
     10  N         95.8080  123.4240  107.1480 N.3   258  ARG258     -0.1245
     11  CA        94.4290  122.9390  107.1500 C.3   258  ARG258      0.1563
     12  C         94.0100  122.5820  108.5760 C.2   258  ARG258      0.2260
     13  O         92.8430  122.7240  108.9510 O.2   258  ARG258     -0.2867
     14  CB        94.3080  121.7110  106.2450 C.3   258  ARG258      0.0307
     15  CG        92.9550  121.0030  106.2750 C.3   258  ARG258      0.0489
     16  CD        91.8850  121.7490  105.4880 C.3   258  ARG258      0.2205
     17  NE        91.1550  122.7340  106.2810 N.pl3 258  ARG258     -0.0865
     18  CZ        89.9260  122.5540  106.7580 C.cat 258  ARG258      0.5346
     19  NH1       89.2740  121.4190  106.5340 N.pl3 258  ARG258      0.1354
     20  NH2       89.3330  123.5260  107.4320 N.pl3 258  ARG258      0.1354
     21  N         92.6110  125.6170  110.5520 N.3   261  THR261     -0.1203
     22  CA        91.2130  125.9200  110.2710 C.3   261  THR261      0.1994
     23  C         90.2990  124.7970  110.7660 C.2   261  THR261      0.2617
     24  O         89.2430  125.0580  111.3410 O.2   261  THR261     -0.2717
     25  CB        90.9570  126.0650  108.7590 C.3   261  THR261      0.1784
     26  OG1       91.9970  126.8490  108.1600 O.3   261  THR261     -0.2211
     27  CG2       89.6100  126.7370  108.5210 C.3   261  THR261      0.0376
     28  N         90.7450  123.5580  110.5850 N.am  262  HIS262     -0.1975
     29  CA        89.9950  122.3760  111.0030 C.3   262  HIS262      0.1656
     30  C         89.6970  122.4430  112.5000 C.2   262  HIS262      0.2291
     31  O         88.5530  122.2920  112.9270 O.2   262  HIS262     -0.2864
     32  CB        90.8650  121.1490  110.7030 C.3   262  HIS262      0.0771
     33  CG        90.1590  119.8390  110.8470 C.ar  262  HIS262      0.0820
     34  ND1       90.1850  119.1010  112.0090 N.ar  262  HIS262     -0.2267
     35  CD2       89.4480  119.1110  109.9530 C.ar  262  HIS262      0.1154
     36  CE1       89.5240  117.9740  111.8280 C.ar  262  HIS262      0.1986
     37  NE2       89.0680  117.9530  110.5860 N.ar  262  HIS262     -0.2212
     38  N         89.9180  125.0610  114.3130 N.3   264  LYS264     -0.1231
     39  CA        89.1790  126.3000  114.5410 C.3   264  LYS264      0.1693
     40  C         87.6910  125.9650  114.4760 C.2   264  LYS264      0.2592
     41  O         86.9060  126.4160  115.3130 O.2   264  LYS264     -0.2718
     42  CB        89.5560  127.3410  113.4780 C.3   264  LYS264      0.0285
     43  CG        88.8650  128.6950  113.6060 C.3   264  LYS264      0.0035
     44  CD        87.5570  128.7470  112.8320 C.3   264  LYS264      0.0206
     45  CE        86.7200  129.9450  113.2460 C.3   264  LYS264      0.1093
     46  NZ        85.4540  130.0330  112.4690 N.3   264  LYS264     -0.1314
     47  N         87.3230  125.1270  113.5100 N.am  265  GLY265     -0.1957
     48  CA        85.9400  124.7180  113.3580 C.3   265  GLY265      0.1869
     49  C         85.4460  124.0250  114.6130 C.2   265  GLY265      0.2309
     50  O         84.3390  124.2890  115.0800 O.2   265  GLY265     -0.2863
     51  N         84.6960  126.4410  117.2720 N.3   268  ASN268     -0.1240
     52  CA        83.4910  127.2060  116.9610 C.3   268  ASN268      0.1653
     53  C         82.2610  126.6730  117.6840 C.2   268  ASN268      0.2266
     54  O         81.2860  127.3990  117.8880 O.2   268  ASN268     -0.2867
     55  CB        83.2330  127.2270  115.4520 C.3   268  ASN268      0.1155
     56  CG        84.0700  128.2610  114.7270 C.2   268  ASN268      0.2627
     57  OD1       85.0590  128.7680  115.2570 O.2   268  ASN268     -0.2716
     58  ND2       83.6730  128.5850  113.5060 N.am  268  ASN268     -0.0877
     59  N         80.1660  119.9440  115.1860 N.3   361  GLN361     -0.1231
     60  CA        80.5000  121.1100  114.3740 C.3   361  GLN361      0.1698
     61  C         81.5160  120.7680  113.2890 C.2   361  GLN361      0.2592
     62  O         81.3240  121.1120  112.1220 O.2   361  GLN361     -0.2718
     63  CB        81.0430  122.2380  115.2530 C.3   361  GLN361      0.0381
     64  CG        81.4410  123.4990  114.4950 C.3   361  GLN361      0.0905
     65  CD        80.2670  124.1890  113.8260 C.2   361  GLN361      0.2608
     66  OE1       79.1830  124.2900  114.3990 O.2   361  GLN361     -0.2717
     67  NE2       80.4830  124.6860  112.6120 N.am  361  GLN361     -0.0878
     68  N         82.6000  120.1060  113.6860 N.am  362  ASN362     -0.1974
     69  CA        83.6500  119.7150  112.7500 C.3   362  ASN362      0.1688
     70  C         83.0900  118.8340  111.6380 C.2   362  ASN362      0.2292
     71  O         83.4940  118.9440  110.4810 O.2   362  ASN362     -0.2864
     72  CB        84.7730  118.9800  113.4830 C.3   362  ASN362      0.1181
     73  CG        85.8840  118.5410  112.5480 C.2   362  ASN362      0.2629
     74  OD1       86.7730  119.3230  112.2110 O.2   362  ASN362     -0.2716
     75  ND2       85.8380  117.2880  112.1230 N.am  362  ASN362     -0.0877
     76  N         81.0960  121.0840  109.2570 N.3   365  ALA365     -0.1231
     77  CA        82.0090  121.9430  108.5130 C.3   365  ALA365      0.1694
     78  C         82.6330  121.1970  107.3420 C.2   365  ALA365      0.2591
     79  O         82.6950  121.7210  106.2290 O.2   365  ALA365     -0.2718
     80  CB        83.0910  122.4740  109.4430 C.3   365  ALA365      0.0304
     81  N         83.0800  119.9700  107.6010 N.am  366  MET366     -0.1979
     82  CA        83.7070  119.1390  106.5760 C.3   366  MET366      0.1605
     83  C         82.6960  118.5690  105.5880 C.2   366  MET366      0.2287
     84  O         83.0240  118.3960  104.4150 O.2   366  MET366     -0.2864
     85  CB        84.4930  117.9840  107.2020 C.3   366  MET366      0.0413
     86  CG        85.6790  118.3910  108.0580 C.3   366  MET366      0.0598
     87  SD        86.6240  116.9370  108.5520 S.3   366  MET366     -0.1393
     88  CE        85.3190  115.9410  109.2360 C.3   366  MET366      0.0692
     89  N         82.0880  121.3270  103.0490 N.3   369  LEU369     -0.1245
     90  CA        83.3080  121.5340  102.2750 C.3   369  LEU369      0.1561
     91  C         83.5370  120.4190  101.2480 C.2   369  LEU369      0.2260
     92  O         84.1300  120.6540  100.1920 O.2   369  LEU369     -0.2867
     93  CB        84.5220  121.6320  103.2090 C.3   369  LEU369      0.0270
     94  CG        84.6820  122.9070  104.0450 C.3   369  LEU369      0.0019
     95  CD1       85.8920  122.7840  104.9650 C.3   369  LEU369      0.0001
     96  CD2       84.8500  124.1120  103.1420 C.3   369  LEU369      0.0001
     97  N         81.8180  125.7530  100.7960 N.3   374  ILE374     -0.1245
     98  CA        81.4990  126.3450  102.0930 C.3   374  ILE374      0.1561
     99  C         80.5800  127.5600  101.9630 C.2   374  ILE374      0.2260
    100  O         79.8450  127.8920  102.8930 O.2   374  ILE374     -0.2867
    101  CB        82.7810  126.7450  102.8640 C.3   374  ILE374      0.0252
    102  CG1       82.4490  127.0710  104.3240 C.3   374  ILE374      0.0019
    103  CG2       83.4620  127.9280  102.1900 C.3   374  ILE374      0.0019
    104  CD1       81.8550  125.9020  105.0890 C.3   374  ILE374      0.0001
    105  N         77.0910  128.7210  104.6610 N.3   378  HIS378     -0.1241
    106  CA        77.5110  129.8620  105.4690 C.3   378  HIS378      0.1621
    107  C         77.0050  131.1920  104.9270 C.2   378  HIS378      0.2264
    108  O         76.3740  131.9550  105.6540 O.2   378  HIS378     -0.2867
    109  CB        79.0390  129.9030  105.6190 C.3   378  HIS378      0.0745
    110  CG        79.5330  131.0160  106.4940 C.ar  378  HIS378      0.0817
    111  ND1       80.1150  130.8280  107.7280 N.ar  378  HIS378     -0.2268
    112  CD2       79.4970  132.3600  106.3040 C.ar  378  HIS378      0.1154
    113  CE1       80.3990  132.0380  108.2370 C.ar  378  HIS378      0.1986
    114  NE2       80.0410  132.9960  107.4050 N.ar  378  HIS378     -0.2212
@<TRIPOS>BOND
     1    92    91    2
     2    97    98    1
     3    91    90    1
     4    99    98    1
     5    99   100    2
     6    98   101    1
     7   103   101    1
     8    90    89    1
     9    90    93    1
    10   101   102    1
    11    96    94    1
    12    93    94    1
    13    94    95    1
    14   102   104    1
    15    84    83    2
    16   105   106    1
    17   107   106    1
    18   107   108    2
    19   106   109    1
    20    16    15    1
    21    16    17    1
    22    83    82    1
    23   109   110    1
    24    79    78    2
    25    14    15    1
    26    14    11    1
    27    17    18    2
    28   112   110   ar
    29   112   114   ar
    30   110   111   ar
    31    19    18    1
    32    82    85    1
    33    82    81    1
    34    18    20    1
    35    10    11    1
    36    11    12    1
    37    85    86    1
    38    78    81   am
    39    78    77    1
    40   114   113   ar
    41   111   113   ar
    42    86    87    1
    43    26    25    1
    44    77    76    1
    45    77    80    1
    46    27    25    1
    47    87    88    1
    48    12    13    2
    49    25    22    1
    50    35    37   ar
    51    35    33   ar
    52    22    21    1
    53    22    23    1
    54    71    70    2
    55    28    23   am
    56    28    29    1
    57    37    36   ar
    58    32    33    1
    59    32    29    1
    60    23    24    2
    61    33    34   ar
    62    29    30    1
    63     9     7   ar
    64    70    69    1
    65    36    34   ar
    66     6     7    1
    67     6     5    1
    68    62    61    2
    69    75    73   am
    70    74    73    2
    71     7     8   ar
    72    46    45    1
    73    30    31    2
    74    73    72    1
    75    67    65   am
    76    69    72    1
    77    69    68    1
    78    44    45    1
    79    44    43    1
    80     3     2    1
    81     3     4    2
    82    61    68   am
    83    61    60    1
    84    48    47    1
    85    48    49    1
    86     2     5    1
    87     2     1    1
    88    42    43    1
    89    42    39    1
    90    58    56   am
    91    47    40   am
    92    65    66    2
    93    65    64    1
    94    38    39    1
    95    60    59    1
    96    60    63    1
    97    40    39    1
    98    40    41    2
    99    64    63    1
   100    49    50    2
   101    56    57    2
   102    56    55    1
   103    55    52    1
   104    52    51    1
   105    52    53    1
   106    53    54    2
