@<TRIPOS>MOLECULE
tmp/1qb1A00.pdb
 169 168 0 0 0
SMALL
GASTEIGER

@<TRIPOS>ATOM
      1  N         23.1450   39.9440   14.7950 N.3    40  HIS40      -0.1241
      2  CA        22.0440   39.9610   15.7540 C.3    40  HIS40       0.1621
      3  C         21.9790   38.7020   16.6230 C.2    40  HIS40       0.2264
      4  O         21.2190   38.6870   17.5920 O.2    40  HIS40      -0.2867
      5  CB        20.6920   40.3480   15.2130 C.3    40  HIS40       0.0745
      6  CG        19.9320   39.2910   14.4800 C.ar   40  HIS40       0.0817
      7  ND1       19.9530   39.1230   13.1100 N.ar   40  HIS40      -0.2268
      8  CD2       19.0690   38.3530   14.9620 C.ar   40  HIS40       0.1154
      9  CE1       19.1520   38.1310   12.7490 C.ar   40  HIS40       0.1986
     10  NE2       18.6030   37.6510   13.8720 N.ar   40  HIS40      -0.2212
     11  N         21.7680   47.8160   14.8070 N.3    78  SER78      -0.1202
     12  CA        20.6550   47.0000   15.3330 C.3    78  SER78       0.2020
     13  C         19.2660   47.5400   15.0050 C.2    78  SER78       0.2619
     14  O         18.2780   46.7770   15.1050 O.2    78  SER78      -0.2717
     15  CB        20.8140   46.7260   16.8190 C.3    78  SER78       0.2103
     16  OG        20.9450   47.9000   17.5910 O.3    78  SER78      -0.2182
     17  N         19.1600   48.7940   14.6270 N.am   79  ASN79      -0.1960
     18  CA        17.8940   49.4370   14.2930 C.3    79  ASN79       0.1819
     19  C         17.4730   49.1060   12.8470 C.2    79  ASN79       0.2622
     20  O         16.2530   49.0510   12.6450 O.2    79  ASN79      -0.2715
     21  CB        17.9650   50.9810   14.3860 C.3    79  ASN79       0.1195
     22  CG        18.6820   51.5040   15.6050 C.2    79  ASN79       0.2630
     23  OD1       19.8490   51.9630   15.5330 O.2    79  ASN79      -0.2716
     24  ND2       17.9710   51.3860   16.7290 N.am   79  ASN79      -0.0877
     25  N         18.4590   49.0210   11.9820 N.am   80  THR80      -0.1937
     26  CA        18.1880   48.7490   10.5820 C.3    80  THR80       0.2028
     27  C         18.6210   47.3520   10.1310 C.2    80  THR80       0.2642
     28  O         18.1900   46.9710    9.0140 O.2    80  THR80      -0.2714
     29  CB        18.8760   49.8070    9.6310 C.3    80  THR80       0.1808
     30  OG1       20.3210   49.5980    9.7710 O.3    80  THR80      -0.2208
     31  CG2       18.4310   51.2400    9.9750 C.3    80  THR80       0.0379
     32  N         19.4830   46.7330   10.9290 N.am   81  LEU81      -0.1977
     33  CA        20.0340   45.4060   10.5730 C.3    81  LEU81       0.1596
     34  C         21.0030   45.5000    9.4040 C.2    81  LEU81       0.2287
     35  O         21.4090   44.5420    8.7350 O.2    81  LEU81      -0.2864
     36  CB        18.8770   44.3990   10.3890 C.3    81  LEU81       0.0297
     37  CG        18.1800   43.9250   11.6530 C.3    81  LEU81       0.0022
     38  CD1       17.5630   42.5390   11.4260 C.3    81  LEU81       0.0001
     39  CD2       19.1960   43.7830   12.7980 C.3    81  LEU81       0.0001
     40  N         13.4410   50.0710    3.5820 N.3   155  GLN155     -0.1245
     41  CA        14.1230   49.1770    4.5380 C.3   155  GLN155      0.1566
     42  C         15.2440   48.3350    3.9680 C.2   155  GLN155      0.2260
     43  O         16.0000   47.6880    4.7480 O.2   155  GLN155     -0.2867
     44  CB        13.0680   48.3060    5.1910 C.3   155  GLN155      0.0367
     45  CG        11.9990   49.0170    6.0070 C.3   155  GLN155      0.0905
     46  CD        11.1510   47.9750    6.7360 C.2   155  GLN155      0.2608
     47  OE1       10.2860   47.3080    6.1810 O.2   155  GLN155     -0.2717
     48  NE2       11.4510   47.8020    8.0290 N.am  155  GLN155     -0.0878
     49  N          9.6190   29.8520    3.5660 N.3   171  ASP171     -0.1225
     50  CA        10.5650   30.9100    4.0040 C.3   171  ASP171      0.1805
     51  C         11.4100   30.3690    5.1640 C.2   171  ASP171      0.2598
     52  O         11.1450   29.2730    5.6830 O.2   171  ASP171     -0.2718
     53  CB         9.6340   32.0490    4.5430 C.3   171  ASP171      0.1424
     54  CG        10.2920   33.3970    4.6900 C.2   171  ASP171      0.3668
     55  OD1        9.6070   34.3220    5.1850 O.co2 171  ASP171     -0.2456
     56  OD2       11.4720   33.5350    4.3470 O.co2 171  ASP171     -0.2456
     57  N         12.3560   31.2010    5.5580 N.am  172  SER172     -0.1938
     58  CA        13.1650   30.9260    6.7820 C.3   172  SER172      0.2055
     59  C         12.3440   31.6400    7.8760 C.2   172  SER172      0.2643
     60  O         11.3560   32.3780    7.6180 O.2   172  SER172     -0.2714
     61  CB        14.5880   31.3390    6.7060 C.3   172  SER172      0.2130
     62  OG        14.6950   32.7140    6.3160 O.3   172  SER172     -0.2179
     63  N         12.7430   31.4040    9.1140 N.am  173  CYS173     -0.1953
     64  CA        11.9990   31.9930   10.2590 C.3   173  CYS173      0.1843
     65  C         12.8660   32.0760   11.4970 C.2   173  CYS173      0.2625
     66  O         14.0630   31.7730   11.5060 O.2   173  CYS173     -0.2714
     67  CB        10.7780   31.1060   10.5160 C.3   173  CYS173      0.0997
     68  SG         9.4800   31.8260   11.5500 S.3   173  CYS173     -0.0797
     69  N         12.2760   32.5800   12.5600 N.am  174  GLN174     -0.1977
     70  CA        13.0320   32.7180   13.8180 C.3   174  GLN174      0.1601
     71  C         13.7080   31.3510   14.1180 C.2   174  GLN174      0.2287
     72  O         13.0480   30.3070   14.0800 O.2   174  GLN174     -0.2864
     73  CB        12.1280   33.0320   15.0060 C.3   174  GLN174      0.0394
     74  CG        11.4280   34.3850   14.9900 C.3   174  GLN174      0.0908
     75  CD        10.5610   34.4350   16.2580 C.2   174  GLN174      0.2608
     76  OE1        9.4960   33.8310   16.3580 O.2   174  GLN174     -0.2717
     77  NE2       11.1370   35.1400   17.2190 N.am  174  GLN174     -0.0878
     78  N         18.0010   32.2950   11.8060 N.3   177  SER177     -0.1217
     79  CA        18.8830   33.4640   11.7560 C.3   177  SER177      0.1889
     80  C         20.3480   33.1080   11.8410 C.2   177  SER177      0.2288
     81  O         20.7340   32.2970   12.7370 O.2   177  SER177     -0.2866
     82  CB        18.5810   34.3930   12.9850 C.3   177  SER177      0.2089
     83  OG        17.3370   35.0240   12.8440 O.3   177  SER177     -0.2183
     84  N         20.8900   34.3200    6.8170 N.3   191  VAL191     -0.1231
     85  CA        19.4690   34.5350    7.2250 C.3   191  VAL191      0.1692
     86  C         19.4840   35.7320    8.2080 C.2   191  VAL191      0.2593
     87  O         20.1180   35.7270    9.2760 O.2   191  VAL191     -0.2718
     88  CB        18.9360   33.2660    7.9410 C.3   191  VAL191      0.0266
     89  CG1       17.5220   33.5110    8.4610 C.3   191  VAL191      0.0020
     90  CG2       19.0220   32.0400    7.0380 C.3   191  VAL191      0.0020
     91  N         18.7490   36.7760    7.8200 N.am  192  SER192     -0.1938
     92  CA        18.7570   38.0100    8.6670 C.3   192  SER192      0.2055
     93  C         17.4210   38.3250    9.2370 C.2   192  SER192      0.2643
     94  O         17.2030   38.2060   10.4820 O.2   192  SER192     -0.2714
     95  CB        19.4370   39.1300    7.8270 C.3   192  SER192      0.2130
     96  OG        19.5600   40.3300    8.6340 O.3   192  SER192     -0.2179
     97  N         16.4110   38.7370    8.4530 N.am  193  TRP193     -0.1959
     98  CA        15.0810   39.1090    8.9760 C.3   193  TRP193      0.1771
     99  C         13.9810   38.9830    7.8910 C.2   193  TRP193      0.2620
    100  O         14.2340   38.6290    6.7560 O.2   193  TRP193     -0.2715
    101  CB        15.1330   40.5760    9.4420 C.3   193  TRP193      0.0590
    102  CG        15.4410   41.6020    8.3900 C.ar  193  TRP193      0.0006
    103  CD1       16.6710   41.9990    7.9490 C.ar  193  TRP193      0.0946
    104  CD2       14.5100   42.4570    7.6890 C.ar  193  TRP193      0.0152
    105  NE1       16.5830   43.0150    7.0290 N.ar  193  TRP193     -0.2442
    106  CE2       15.2650   43.3090    6.8710 C.ar  193  TRP193      0.0810
    107  CE3       13.1210   42.5720    7.7570 C.ar  193  TRP193      0.0012
    108  CZ2       14.6790   44.2680    6.0230 C.ar  193  TRP193      0.0191
    109  CZ3       12.5180   43.5290    6.9340 C.ar  193  TRP193      0.0001
    110  CH2       13.2900   44.3430    6.1110 C.ar  193  TRP193      0.0015
    111  N         12.7570   39.3170    8.2840 N.am  194  GLY194     -0.1940
    112  CA        11.5730   39.3150    7.3950 C.3   194  GLY194      0.2014
    113  C         10.3980   39.7360    8.3080 C.2   194  GLY194      0.2640
    114  O         10.5360   39.7770    9.5500 O.2   194  GLY194     -0.2714
    115  N          9.2780   40.0320    7.6510 N.am  195  SER195     -0.1935
    116  CA         8.0940   40.4730    8.4520 C.3   195  SER195      0.2055
    117  C          7.2550   39.2240    8.6600 C.2   195  SER195      0.2644
    118  O          6.6160   38.7920    7.6850 O.2   195  SER195     -0.2714
    119  CB         7.3520   41.5690    7.6890 C.3   195  SER195      0.2130
    120  OG         6.3440   42.0580    8.5410 O.3   195  SER195     -0.2179
    121  N          7.3400   38.6670    9.8500 N.am  196  GLY196     -0.1939
    122  CA         6.6370   37.3790   10.1280 C.3   196  GLY196      0.2014
    123  C          7.5010   36.3040    9.3690 C.2   196  GLY196      0.2639
    124  O          8.7070   36.5780    9.1410 O.2   196  GLY196     -0.2714
    125  N          6.8540   35.2410    9.0080 N.am  197  CYS197     -0.1967
    126  CA         7.4760   34.1380    8.2460 C.3   197  CYS197      0.1712
    127  C          6.4410   33.5810    7.2600 C.2   197  CYS197      0.2296
    128  O          5.2890   33.3160    7.6460 O.2   197  CYS197     -0.2864
    129  CB         8.0460   33.0040    9.1100 C.3   197  CYS197      0.0983
    130  SG         9.0610   33.6040   10.5170 S.3   197  CYS197     -0.0798
    131  N          5.9490   39.0970    1.4950 N.3   202  LYS202     -0.1231
    132  CA         6.9450   39.4790    2.5310 C.3   202  LYS202      0.1678
    133  C          8.0020   38.3710    2.5450 C.2   202  LYS202      0.2434
    134  O          7.9630   37.4900    3.4150 O.2   202  LYS202     -0.2733
    135  CB         6.2270   39.5610    3.8720 C.3   202  LYS202      0.0284
    136  CG         5.1940   40.7010    3.9680 C.3   202  LYS202      0.0035
    137  CD         5.8790   42.0790    3.9450 C.3   202  LYS202      0.0206
    138  CE         5.0360   43.0780    4.7400 C.3   202  LYS202      0.1093
    139  NZ         5.4750   44.4670    4.4680 N.3   202  LYS202     -0.1314
    140  N          8.9020   38.4680    1.6000 N.am  203  PRO203     -0.2718
    141  CA         9.9640   37.4270    1.4700 C.3   203  PRO203      0.1535
    142  C         11.0020   37.6360    2.5470 C.2   203  PRO203      0.2599
    143  O         11.0560   38.6490    3.2730 O.2   203  PRO203     -0.2715
    144  CB        10.4990   37.6560    0.0670 C.3   203  PRO203      0.0310
    145  CG        10.3380   39.1650   -0.1410 C.3   203  PRO203      0.0237
    146  CD         9.0060   39.4630    0.5330 C.3   203  PRO203      0.0939
    147  N         11.8580   36.6150    2.6680 N.am  204  GLY204     -0.1941
    148  CA        12.9550   36.7640    3.6770 C.3   204  GLY204      0.2014
    149  C         14.0150   37.7380    3.1080 C.2   204  GLY204      0.2639
    150  O         14.2720   37.9180    1.9190 O.2   204  GLY204     -0.2714
    151  N         14.7080   38.3760    4.0440 N.am  205  VAL205     -0.1963
    152  CA        15.8030   39.3160    3.8170 C.3   205  VAL205      0.1727
    153  C         17.0900   38.7340    4.4190 C.2   205  VAL205      0.2616
    154  O         17.1410   38.1670    5.4990 O.2   205  VAL205     -0.2715
    155  CB        15.4890   40.7410    4.3110 C.3   205  VAL205      0.0290
    156  CG1       16.5550   41.6930    3.7490 C.3   205  VAL205      0.0023
    157  CG2       14.1050   41.2010    3.9270 C.3   205  VAL205      0.0023
    158  N         18.0990   38.8040    3.5810 N.am  206  TYR206     -0.1974
    159  CA        19.3980   38.2250    3.7830 C.3   206  TYR206      0.1639
    160  C         20.5590   39.1590    3.5680 C.2   206  TYR206      0.2290
    161  O         20.5820   39.9400    2.6460 O.2   206  TYR206     -0.2864
    162  CB        19.5590   37.0080    2.7490 C.3   206  TYR206      0.0560
    163  CG        18.4120   36.0110    2.9380 C.ar  206  TYR206     -0.0198
    164  CD1       18.5500   34.9690    3.8870 C.ar  206  TYR206     -0.0009
    165  CD2       17.2230   36.0880    2.1930 C.ar  206  TYR206     -0.0009
    166  CE1       17.5260   34.0610    4.0780 C.ar  206  TYR206      0.0417
    167  CE2       16.1670   35.1700    2.3880 C.ar  206  TYR206      0.0417
    168  CZ        16.3510   34.1490    3.3300 C.ar  206  TYR206      0.1957
    169  OH        15.3260   33.2760    3.5580 O.3   206  TYR206     -0.2866
@<TRIPOS>BOND
     1   145   144    1
     2   145   146    1
     3   144   141    1
     4   146   140    1
     5   141   140    1
     6   141   142    1
     7   131   132    1
     8   140   133   am
     9   150   149    2
    10   165   167   ar
    11   165   163   ar
    12   167   168   ar
    13   132   133    1
    14   132   135    1
    15   133   134    2
    16   142   147   am
    17   142   143    2
    18   161   160    2
    19   147   148    1
    20   162   163    1
    21   162   159    1
    22   163   164   ar
    23   149   148    1
    24   149   151   am
    25   168   169    1
    26   168   166   ar
    27    49    50    1
    28   160   159    1
    29   158   159    1
    30   158   153   am
    31    40    41    1
    32   156   155    1
    33   152   151    1
    34   152   155    1
    35   152   153    1
    36   135   136    1
    37   164   166   ar
    38   157   155    1
    39   137   136    1
    40   137   138    1
    41    42    41    1
    42    42    43    2
    43    50    53    1
    44    50    51    1
    45    56    54   ar
    46   153   154    2
    47   139   138    1
    48    41    44    1
    49    53    54    1
    50    54    55   ar
    51    51    57   am
    52    51    52    2
    53    44    45    1
    54    57    58    1
    55    45    46    1
    56   108   110   ar
    57   108   106   ar
    58   110   109   ar
    59    47    46    2
    60    62    61    1
    61    61    58    1
    62    46    48   am
    63   100    99    2
    64    58    59    1
    65    84    85    1
    66   106   105   ar
    67   106   104   ar
    68   109   107   ar
    69   105   103   ar
    70    90    88    1
    71    85    88    1
    72    85    86    1
    73   127   128    2
    74   127   126    1
    75   112   111    1
    76   112   113    1
    77    60    59    2
    78   115   113   am
    79   115   116    1
    80   118   117    2
    81   104   107   ar
    82   104   102   ar
    83   119   116    1
    84   119   120    1
    85    91    86   am
    86    91    92    1
    87    95    96    1
    88    95    92    1
    89    59    63   am
    90    99   111   am
    91    99    98    1
    92    88    89    1
    93   103   102   ar
    94    86    87    2
    95   126   125    1
    96   126   129    1
    97   113   114    2
    98   102   101    1
    99   116   117    1
   100    97    98    1
   101    97    93   am
   102   117   121   am
   103    92    93    1
   104    35    34    2
   105    98   101    1
   106   125   123   am
   107    28    27    2
   108   129   130    1
   109    63    64    1
   110   124   123    2
   111    93    94    2
   112   123   122    1
   113    34    33    1
   114    29    30    1
   115    29    31    1
   116    29    26    1
   117   121   122    1
   118    27    26    1
   119    27    32   am
   120    64    67    1
   121    64    65    1
   122    36    33    1
   123    36    37    1
   124    67    68    1
   125   130    68    1
   126    33    32    1
   127    26    25    1
   128    38    37    1
   129    65    66    2
   130    65    69   am
   131    37    39    1
   132    79    78    1
   133    79    80    1
   134    79    82    1
   135    80    81    2
   136    25    19   am
   137    69    70    1
   138    20    19    2
   139     9     7   ar
   140     9    10   ar
   141    83    82    1
   142    19    18    1
   143     7     6   ar
   144    70    71    1
   145    70    73    1
   146    10     8   ar
   147    72    71    2
   148    18    21    1
   149    18    17    1
   150    21    22    1
   151     6     8   ar
   152     6     5    1
   153    17    13   am
   154     1     2    1
   155    11    12    1
   156    74    73    1
   157    74    75    1
   158    13    14    2
   159    13    12    1
   160     5     2    1
   161    12    15    1
   162    23    22    2
   163    22    24   am
   164     2     3    1
   165    75    76    2
   166    75    77   am
   167     3     4    2
   168    15    16    1
