@<TRIPOS>MOLECULE
tmp/1qb6A00.pdb
 155 151 0 0 0
SMALL
GASTEIGER

@<TRIPOS>ATOM
      1  N         18.5140   23.7520   27.5720 N.3    40  HIS40      -0.1241
      2  CA        17.5640   24.8490   27.2330 C.3    40  HIS40       0.1621
      3  C         16.5090   25.0170   28.2940 C.2    40  HIS40       0.2264
      4  O         15.7650   26.0080   28.3110 O.2    40  HIS40      -0.2867
      5  CB        17.0140   24.7350   25.7940 C.3    40  HIS40       0.0745
      6  CG        15.8170   23.8540   25.5600 C.ar   40  HIS40       0.0817
      7  ND1       15.9260   22.5400   25.1220 N.ar   40  HIS40      -0.2268
      8  CD2       14.5330   24.0570   25.7810 C.ar   40  HIS40       0.1154
      9  CE1       14.7280   22.0340   25.0550 C.ar   40  HIS40       0.1986
     10  NE2       13.8560   22.9270   25.4770 N.ar   40  HIS40      -0.2212
     11  N         23.1160   27.7600   22.5430 N.3    78  SER78      -0.1202
     12  CA        21.6940   28.0340   22.5900 C.3    78  SER78       0.2020
     13  C         21.0140   28.2970   21.2580 C.2    78  SER78       0.2619
     14  O         19.7830   28.1090   21.1680 O.2    78  SER78      -0.2717
     15  CB        21.3700   29.1780   23.5550 C.3    78  SER78       0.2103
     16  OG        21.9540   30.3820   23.1150 O.3    78  SER78      -0.2182
     17  N         21.8010   28.6960   20.2870 N.am   79  ASN79      -0.1960
     18  CA        21.2860   29.0450   18.9500 C.3    79  ASN79       0.1819
     19  C         21.0660   27.8130   18.0650 C.2    79  ASN79       0.2622
     20  O         20.0280   27.8240   17.3540 O.2    79  ASN79      -0.2715
     21  CB        22.2080   30.0730   18.3300 C.3    79  ASN79       0.1195
     22  CG        22.2760   31.4510   18.9390 C.2    79  ASN79       0.2630
     23  OD1       22.9020   32.3240   18.3300 O.2    79  ASN79      -0.2716
     24  ND2       21.7000   31.7500   20.1000 N.am   79  ASN79      -0.0877
     25  N         21.8770   26.8130   18.2040 N.am   80  THR80      -0.1937
     26  CA        21.8200   25.5760   17.4160 C.3    80  THR80       0.2028
     27  C         21.2090   24.4260   18.1930 C.2    80  THR80       0.2642
     28  O         20.6480   23.4050   17.7080 O.2    80  THR80      -0.2714
     29  CB        23.2510   25.2410   16.8490 C.3    80  THR80       0.1808
     30  OG1       24.0940   24.9410   17.9990 O.3    80  THR80      -0.2208
     31  CG2       23.8990   26.3360   15.9870 C.3    80  THR80       0.0379
     32  N         21.3200   24.5800   19.5420 N.am   81  LEU81      -0.1977
     33  CA        20.7920   23.5170   20.4260 C.3    81  LEU81       0.1596
     34  C         21.7670   22.3460   20.4190 C.2    81  LEU81       0.2287
     35  O         21.4480   21.2660   20.9850 O.2    81  LEU81      -0.2864
     36  CB        19.3520   23.1970   20.0690 C.3    81  LEU81       0.0297
     37  CG        18.2850   24.1360   20.6340 C.3    81  LEU81       0.0022
     38  CD1       17.0030   23.4070   20.9790 C.3    81  LEU81       0.0001
     39  CD2       18.8600   24.7480   21.9250 C.3    81  LEU81       0.0001
     40  N         21.1830   21.4920   10.0710 N.3   155  GLN155     -0.1245
     41  CA        20.9510   21.7050   11.5330 C.3   155  GLN155      0.1566
     42  C         21.2250   20.4940   12.4290 C.2   155  GLN155      0.2260
     43  O         21.1030   20.6910   13.6810 O.2   155  GLN155     -0.2867
     44  CB        19.5190   22.0830   11.8510 C.3   155  GLN155      0.0367
     45  CG        18.5630   22.4230   10.7460 C.3   155  GLN155      0.0905
     46  CD        17.8790   23.7170   11.1900 C.2   155  GLN155      0.2608
     47  OE1       16.7090   23.7990   11.4920 O.2   155  GLN155     -0.2717
     48  NE2       18.7850   24.6780   11.2520 N.am  155  GLN155     -0.0878
     49  N          4.2920   12.6910   18.2110 N.3   171  ASP171     -0.1225
     50  CA         5.5680   13.3550   18.5370 C.3   171  ASP171      0.1805
     51  C          5.5720   13.8160   20.0170 C.2   171  ASP171      0.2598
     52  O          4.5730   13.7470   20.6760 O.2   171  ASP171     -0.2718
     53  CB         5.6990   14.6200   17.6690 C.3   171  ASP171      0.1424
     54  CG         7.0370   15.2380   17.5110 C.2   171  ASP171      0.3668
     55  OD1        7.2460   16.2890   16.8470 O.co2 171  ASP171     -0.2456
     56  OD2        8.0040   14.7240   18.1120 O.co2 171  ASP171     -0.2456
     57  N          6.7610   14.3110   20.3910 N.am  172  SER172     -0.1938
     58  CA         6.8850   14.9110   21.7620 C.3   172  SER172      0.2055
     59  C          6.5440   16.3770   21.4070 C.2   172  SER172      0.2643
     60  O          6.4310   16.6760   20.1760 O.2   172  SER172     -0.2714
     61  CB         8.2170   14.7240   22.3800 C.3   172  SER172      0.2130
     62  OG         9.2750   15.2950   21.6700 O.3   172  SER172     -0.2179
     63  N          6.3920   17.2160   22.3940 N.am  173  CYS173     -0.1953
     64  CA         6.0290   18.6230   22.1220 C.3   173  CYS173      0.1843
     65  C          6.5250   19.4760   23.2680 C.2   173  CYS173      0.2625
     66  O          7.2470   18.9180   24.1310 O.2   173  CYS173     -0.2714
     67  CB         4.5390   18.6210   21.8370 C.3   173  CYS173      0.0997
     68  SG         3.8730   19.9520   20.9510 S.3   173  CYS173     -0.0797
     69  N          6.1690   20.7180   23.2940 N.am  174  GLN174     -0.1977
     70  CA         6.6160   21.6940   24.3010 C.3   174  GLN174      0.1601
     71  C          5.9420   21.3100   25.6260 C.2   174  GLN174      0.2287
     72  O          4.7550   21.0450   25.6520 O.2   174  GLN174     -0.2864
     73  CB         6.5170   23.1270   23.9120 C.3   174  GLN174      0.0394
     74  CG         5.2330   23.5890   23.2310 C.3   174  GLN174      0.0908
     75  CD         5.5840   24.8140   22.3910 C.2   174  GLN174      0.2608
     76  OE1        6.6110   25.4520   22.6630 O.2   174  GLN174     -0.2717
     77  NE2        4.7850   25.1100   21.3930 N.am  174  GLN174     -0.0878
     78  N         10.1520   18.9170   26.9650 N.3   177  SER177     -0.1217
     79  CA        11.5960   19.1990   26.9230 C.3   177  SER177      0.1889
     80  C         12.3360   18.7250   28.1580 C.2   177  SER177      0.2288
     81  O         11.8080   19.0290   29.2390 O.2   177  SER177     -0.2866
     82  CB        11.8570   20.6880   26.7190 C.3   177  SER177      0.2089
     83  OG        11.2600   21.1280   25.4940 O.3   177  SER177     -0.2183
     84  N         14.4730   15.0420   25.3450 N.3   191  VAL191     -0.1231
     85  CA        13.5540   15.8060   24.4730 C.3   191  VAL191      0.1692
     86  C         14.2530   17.1620   24.2340 C.2   191  VAL191      0.2593
     87  O         14.4060   17.9720   25.1870 O.2   191  VAL191     -0.2718
     88  CB        12.1350   15.8800   25.0030 C.3   191  VAL191      0.0266
     89  CG1       11.2190   16.7750   24.1360 C.3   191  VAL191      0.0020
     90  CG2       11.4310   14.5560   25.1890 C.3   191  VAL191      0.0020
     91  N         14.6280   17.4470   22.9870 N.am  192  SER192     -0.1938
     92  CA        15.3500   18.7400   22.7480 C.3   192  SER192      0.2055
     93  C         14.5850   19.7480   21.9550 C.2   192  SER192      0.2643
     94  O         14.2720   20.8770   22.4360 O.2   192  SER192     -0.2714
     95  CB        16.7210   18.4710   22.1280 C.3   192  SER192      0.2130
     96  OG        17.4510   19.6490   22.0210 O.3   192  SER192     -0.2179
     97  N         14.2970   19.4400   20.6820 N.am  193  TRP193     -0.1959
     98  CA        13.5930   20.4520   19.8600 C.3   193  TRP193      0.1771
     99  C         12.8280   19.7640   18.7440 C.2   193  TRP193      0.2620
    100  O         12.8920   18.5390   18.5980 O.2   193  TRP193     -0.2715
    101  CB        14.5460   21.5320   19.3240 C.3   193  TRP193      0.0590
    102  CG        15.6890   21.0640   18.4960 C.ar  193  TRP193      0.0006
    103  CD1       16.8390   20.4870   18.9240 C.ar  193  TRP193      0.0946
    104  CD2       15.8130   21.1160   17.0450 C.ar  193  TRP193      0.0152
    105  NE1       17.6640   20.1710   17.8850 N.ar  193  TRP193     -0.2442
    106  CE2       17.0610   20.5500   16.7180 C.ar  193  TRP193      0.0810
    107  CE3       14.9740   21.5800   16.0320 C.ar  193  TRP193      0.0012
    108  CZ2       17.4980   20.4060   15.3970 C.ar  193  TRP193      0.0191
    109  CZ3       15.3910   21.4450   14.7220 C.ar  193  TRP193      0.0001
    110  CH2       16.6460   20.9020   14.4280 C.ar  193  TRP193      0.0015
    111  N         12.1650   20.6370   18.0090 N.am  194  GLY194     -0.1940
    112  CA        11.3620   20.1100   16.8640 C.3   194  GLY194      0.2014
    113  C         10.8380   21.2910   16.0620 C.2   194  GLY194      0.2640
    114  O         11.0760   22.4810   16.4020 O.2   194  GLY194     -0.2714
    115  N         10.1290   20.9010   15.0120 N.am  195  SER195     -0.1935
    116  CA         9.4980   21.9620   14.1840 C.3   195  SER195      0.2055
    117  C          7.9970   21.6720   14.3610 C.2   195  SER195      0.2644
    118  O          7.6250   20.6770   13.7150 O.2   195  SER195     -0.2714
    119  CB         9.8280   21.9170   12.7220 C.3   195  SER195      0.2130
    120  OG         9.0240   22.8720   12.0400 O.3   195  SER195     -0.2179
    121  N          7.3540   22.4800   15.1170 N.am  196  GLY196     -0.1939
    122  CA         5.9250   22.3290   15.4580 C.3   196  GLY196      0.2014
    123  C          5.8530   20.9870   16.2100 C.2   196  GLY196      0.2639
    124  O          6.8540   20.5430   16.8100 O.2   196  GLY196     -0.2714
    125  N          4.7040   20.3310   16.0970 N.am  197  CYS197     -0.1967
    126  CA         4.6260   18.9970   16.7550 C.3   197  CYS197      0.1712
    127  C          3.7320   18.0990   15.9000 C.2   197  CYS197      0.2296
    128  O          2.6710   18.5240   15.4400 O.2   197  CYS197     -0.2864
    129  CB         4.1700   19.0540   18.1900 C.3   197  CYS197      0.0983
    130  SG         4.9880   20.2940   19.2690 S.3   197  CYS197     -0.0798
    131  N          8.5620   16.2010    9.8310 N.3   202  LYS202     -0.1245
    132  CA         9.3550   17.0590   10.7700 C.3   202  LYS202      0.1561
    133  C          9.3510   16.3050   12.1190 C.2   202  LYS202      0.2260
    134  O          8.5590   16.6360   13.0080 O.2   202  LYS202     -0.2867
    135  CB         8.8800   18.4710   10.9210 C.3   202  LYS202      0.0271
    136  CG         8.8810   19.3270    9.6580 C.3   202  LYS202      0.0035
    137  CD        10.2400   19.7680    9.1510 C.3   202  LYS202      0.0206
    138  CE        10.1180   20.3760    7.7450 C.3   202  LYS202      0.1093
    139  NZ        11.4420   20.3690    7.0650 N.3   202  LYS202     -0.1314
    140  N         10.8130   14.5450   15.7370 N.3   204  GLY204     -0.1225
    141  CA        11.4310   15.1100   16.9630 C.3   204  GLY204      0.1811
    142  C         12.9210   14.9140   16.9250 C.2   204  GLY204      0.2280
    143  O         13.3740   13.8860   16.3450 O.2   204  GLY204     -0.2866
    144  N         16.3840   14.8410   19.2750 N.3   206  TYR206     -0.1241
    145  CA        16.8410   14.4960   20.6490 C.3   206  TYR206      0.1605
    146  C         18.3030   14.5540   20.8840 C.2   206  TYR206      0.2264
    147  O         19.1040   14.1910   20.0180 O.2   206  TYR206     -0.2867
    148  CB        16.4250   12.9500   20.8790 C.3   206  TYR206      0.0534
    149  CG        14.9470   12.8800   20.7350 C.ar  206  TYR206     -0.0201
    150  CD1       14.1020   13.1520   21.8170 C.ar  206  TYR206     -0.0009
    151  CD2       14.3270   12.6690   19.4580 C.ar  206  TYR206     -0.0009
    152  CE1       12.7470   13.1910   21.6980 C.ar  206  TYR206      0.0417
    153  CE2       12.9620   12.6920   19.3670 C.ar  206  TYR206      0.0417
    154  CZ        12.1470   12.9140   20.4570 C.ar  206  TYR206      0.1957
    155  OH        10.7940   12.9440   20.3370 O.3   206  TYR206     -0.2866
@<TRIPOS>BOND
     1   139   138    1
     2   138   137    1
     3   137   136    1
     4   136   135    1
     5   131   132    1
     6    40    41    1
     7    45    46    1
     8    45    44    1
     9   132   135    1
    10   132   133    1
    11    46    48   am
    12    46    47    2
    13    41    44    1
    14    41    42    1
    15   120   119    1
    16   133   134    2
    17    42    43    2
    18   119   116    1
    19   118   117    2
    20   116   117    1
    21   116   115    1
    22   117   121   am
    23   110   109   ar
    24   110   108   ar
    25   109   107   ar
    26   115   113   am
    27   121   122    1
    28   108   106   ar
    29   128   127    2
    30   122   123    1
    31   140   141    1
    32   127   126    1
    33    31    29    1
    34   107   104   ar
    35   113   114    2
    36   113   112    1
    37   125   123   am
    38   125   126    1
    39   123   124    2
    40   143   142    2
    41   106   104   ar
    42   106   105   ar
    43   126   129    1
    44    55    54   ar
    45    29    26    1
    46    29    30    1
    47   112   111    1
    48   142   141    1
    49   104   102   ar
    50    20    19    2
    51    26    27    1
    52    26    25    1
    53    54    53    1
    54    54    56   ar
    55    53    50    1
    56    28    27    2
    57   105   103   ar
    58   111    99   am
    59    19    25   am
    60    19    18    1
    61   129   130    1
    62    27    32   am
    63    49    50    1
    64    23    22    2
    65    21    22    1
    66    21    18    1
    67   102   103   ar
    68   102   101    1
    69    50    51    1
    70   100    99    2
    71    99    98    1
    72    22    24   am
    73    18    17    1
    74   130    68    1
    75   144   145    1
    76   101    98    1
    77   153   151   ar
    78   153   154   ar
    79   151   149   ar
    80    32    33    1
    81    98    97    1
    82    51    57   am
    83    51    52    2
    84   147   146    2
    85    36    33    1
    86    36    37    1
    87    60    59    2
    88    17    13   am
    89   155   154    1
    90    57    58    1
    91    34    33    1
    92    34    35    2
    93   154   152   ar
    94    37    38    1
    95    37    39    1
    96   145   148    1
    97   145   146    1
    98    97    93   am
    99   149   148    1
   100   149   150   ar
   101    68    67    1
   102    14    13    2
   103    13    12    1
   104    77    75   am
   105    59    58    1
   106    59    63   am
   107    62    61    1
   108   152   150   ar
   109    58    61    1
   110    67    64    1
   111    93    94    2
   112    93    92    1
   113    96    95    1
   114    64    63    1
   115    64    65    1
   116    95    92    1
   117    75    76    2
   118    75    74    1
   119    11    12    1
   120    12    15    1
   121    92    91    1
   122    91    86   am
   123    16    15    1
   124    74    73    1
   125    65    69   am
   126    65    66    2
   127    69    70    1
   128    73    70    1
   129    89    88    1
   130    86    85    1
   131    86    87    2
   132    70    71    1
   133    85    88    1
   134    85    84    1
   135    88    90    1
   136     9     7   ar
   137     9    10   ar
   138     7     6   ar
   139    10     8   ar
   140    83    82    1
   141     6     8   ar
   142     6     5    1
   143    71    72    2
   144     5     2    1
   145    82    79    1
   146    79    78    1
   147    79    80    1
   148     2     1    1
   149     2     3    1
   150    80    81    2
   151     3     4    2
