@<TRIPOS>MOLECULE
tmp/1qb7A00.pdb
 91 84 0 0 0
SMALL
GASTEIGER

@<TRIPOS>ATOM
      1  N         30.9530   33.3960   21.8190 N.3    36  ARG36      -0.1245
      2  CA        31.2280   33.9650   20.5060 C.3    36  ARG36       0.1563
      3  C         30.8530   35.4380   20.4480 C.2    36  ARG36       0.2260
      4  O         29.9810   35.8980   21.1890 O.2    36  ARG36      -0.2867
      5  CB        30.4400   33.1920   19.4490 C.3    36  ARG36       0.0307
      6  CG        31.2280   32.8070   18.2160 C.3    36  ARG36       0.0489
      7  CD        30.3180   32.0950   17.2290 C.3    36  ARG36       0.2205
      8  NE        31.0050   31.6860   16.0060 N.pl3  36  ARG36      -0.0865
      9  CZ        31.4660   32.5270   15.0830 C.cat  36  ARG36       0.5346
     10  NH1       31.3230   33.8390   15.2370 N.pl3  36  ARG36       0.1354
     11  NH2       32.0560   32.0530   13.9920 N.pl3  36  ARG36       0.1354
     12  N         28.9470   37.5350   18.6250 N.3    38  VAL38      -0.1245
     13  CA        27.8250   37.7800   17.7290 C.3    38  VAL38       0.1561
     14  C         26.7950   38.4910   18.6010 C.2    38  VAL38       0.2260
     15  O         26.7890   38.3290   19.8230 O.2    38  VAL38      -0.2867
     16  CB        27.2290   36.4680   17.1270 C.3    38  VAL38       0.0252
     17  CG1       28.2190   35.8340   16.1610 C.3    38  VAL38       0.0019
     18  CG2       26.8540   35.4830   18.2220 C.3    38  VAL38       0.0019
     19  N         23.5410   38.0870   19.0770 N.3    40  ARG40      -0.1231
     20  CA        22.6960   37.1630   19.8150 C.3    40  ARG40       0.1694
     21  C         23.0700   35.7150   19.4980 C.2    40  ARG40       0.2592
     22  O         22.7990   35.2060   18.4080 O.2    40  ARG40      -0.2718
     23  CB        21.2190   37.4240   19.4910 C.3    40  ARG40       0.0321
     24  CG        20.7830   38.8860   19.6720 C.3    40  ARG40       0.0489
     25  CD        19.2990   39.0810   19.4240 C.3    40  ARG40       0.2205
     26  NE        18.8770   38.4760   18.1660 N.pl3  40  ARG40      -0.0865
     27  CZ        17.6100   38.3150   17.7900 C.cat  40  ARG40       0.5346
     28  NH1       16.6180   38.7480   18.5610 N.pl3  40  ARG40       0.1354
     29  NH2       17.3340   37.7410   16.6270 N.pl3  40  ARG40       0.1354
     30  N         23.7300   35.0720   20.4550 N.am   41  PHE41      -0.1962
     31  CA        24.1530   33.6830   20.3130 C.3    41  PHE41       0.1771
     32  C         23.0040   32.7750   20.7560 C.2    41  PHE41       0.2619
     33  O         22.6800   32.7330   21.9420 O.2    41  PHE41      -0.2715
     34  CB        25.3990   33.4380   21.1740 C.3    41  PHE41       0.0574
     35  CG        25.9480   32.0420   21.0690 C.ar   41  PHE41      -0.0200
     36  CD1       25.5010   31.0320   21.9240 C.ar   41  PHE41      -0.0042
     37  CD2       26.9100   31.7290   20.1180 C.ar   41  PHE41      -0.0042
     38  CE1       26.0040   29.7390   21.8310 C.ar   41  PHE41      -0.0003
     39  CE2       27.4170   30.4370   20.0200 C.ar   41  PHE41      -0.0003
     40  CZ        26.9590   29.4420   20.8810 C.ar   41  PHE41      -0.0000
     41  N         22.3780   32.0760   19.8080 N.am   42  ALA42      -0.1977
     42  CA        21.2600   31.1820   20.1160 C.3    42  ALA42       0.1597
     43  C         21.7590   29.8680   20.7120 C.2    42  ALA42       0.2287
     44  O         22.3000   29.0240   20.0050 O.2    42  ALA42      -0.2864
     45  CB        20.4330   30.9220   18.8760 C.3    42  ALA42       0.0319
     46  N         27.1210   20.4460   17.5470 N.3    81  ARG81      -0.1245
     47  CA        25.6990   20.6780   17.7340 C.3    81  ARG81       0.1563
     48  C         24.7730   19.8740   16.8210 C.2    81  ARG81       0.2260
     49  O         23.6240   19.6020   17.1840 O.2    81  ARG81      -0.2867
     50  CB        25.4220   22.1830   17.7400 C.3    81  ARG81       0.0307
     51  CG        26.3470   22.8980   18.7390 C.3    81  ARG81       0.0489
     52  CD        26.0340   24.3630   18.9560 C.3    81  ARG81       0.2205
     53  NE        26.0260   25.1370   17.7210 N.pl3  81  ARG81      -0.0865
     54  CZ        26.6230   26.3160   17.5600 C.cat  81  ARG81       0.5346
     55  NH1       27.3370   26.8500   18.5390 N.pl3  81  ARG81       0.1354
     56  NH2       26.5390   26.9460   16.3990 N.pl3  81  ARG81       0.1354
     57  N         22.3030   25.7220   13.9540 N.3   147  VAL147     -0.1245
     58  CA        22.1270   27.0630   13.4050 C.3   147  VAL147      0.1561
     59  C         22.8230   27.2590   12.0580 C.2   147  VAL147      0.2260
     60  O         23.9620   26.8280   11.8740 O.2   147  VAL147     -0.2867
     61  CB        22.6800   28.1400   14.3940 C.3   147  VAL147      0.0252
     62  CG1       22.5080   29.5340   13.8200 C.3   147  VAL147      0.0019
     63  CG2       21.9850   28.0430   15.7420 C.3   147  VAL147      0.0019
     64  N         24.3470   29.9120   10.1480 N.3   149  ALA149     -0.1231
     65  CA        24.8240   31.2830   10.2700 C.3   149  ALA149      0.1694
     66  C         25.5350   31.7210    8.9870 C.2   149  ALA149      0.2592
     67  O         24.8790   32.1240    8.0340 O.2   149  ALA149     -0.2718
     68  CB        25.7320   31.4090   11.4740 C.3   149  ALA149      0.0304
     69  N         26.8620   31.6240    8.9440 N.am  150  THR150     -0.1953
     70  CA        27.6070   32.0130    7.7410 C.3   150  THR150      0.1897
     71  C         27.6260   30.9100    6.6760 C.2   150  THR150      0.2313
     72  O         27.9220   31.1710    5.5110 O.2   150  THR150     -0.2863
     73  CB        29.0540   32.4280    8.0610 C.3   150  THR150      0.1794
     74  OG1       29.7660   31.3110    8.6080 O.3   150  THR150     -0.2208
     75  CG2       29.0690   33.5790    9.0510 C.3   150  THR150      0.0378
     76  N         19.7940   32.3140   10.3700 N.3   177  ILE177     -0.1245
     77  CA        20.0930   33.7330   10.5690 C.3   177  ILE177      0.1561
     78  C         20.1140   34.3120    9.1530 C.2   177  ILE177      0.2260
     79  O         21.1840   34.5760    8.5990 O.2   177  ILE177     -0.2867
     80  CB        21.5020   33.9350   11.1830 C.3   177  ILE177      0.0252
     81  CG1       21.7660   32.9400   12.3230 C.3   177  ILE177      0.0019
     82  CG2       21.6610   35.3720   11.6510 C.3   177  ILE177      0.0019
     83  CD1       20.9150   33.1310   13.5490 C.3   177  ILE177      0.0001
     84  N         22.6780   36.8490    7.4930 N.3   180  LEU180     -0.1245
     85  CA        23.9980   36.4250    7.0480 C.3   180  LEU180      0.1561
     86  C         24.0310   35.8400    5.6360 C.2   180  LEU180      0.2260
     87  O         25.0950   35.4820    5.1320 O.2   180  LEU180     -0.2867
     88  CB        24.6020   35.4600    8.0640 C.3   180  LEU180      0.0270
     89  CG        24.8980   36.1150    9.4150 C.3   180  LEU180      0.0019
     90  CD1       25.2230   35.0640   10.4630 C.3   180  LEU180      0.0001
     91  CD2       26.0470   37.1070    9.2590 C.3   180  LEU180      0.0001
@<TRIPOS>BOND
     1    87    86    2
     2    72    71    2
     3    86    85    1
     4    71    70    1
     5    85    84    1
     6    85    88    1
     7    70    73    1
     8    70    69    1
     9    67    66    2
    10    73    74    1
    11    73    75    1
    12    88    89    1
    13    79    78    2
    14    69    66   am
    15    66    65    1
    16    78    77    1
    17    91    89    1
    18    89    90    1
    19    64    65    1
    20    65    68    1
    21    76    77    1
    22    77    80    1
    23    80    82    1
    24    80    81    1
    25    60    59    2
    26    59    58    1
    27    81    83    1
    28    58    57    1
    29    58    61    1
    30    62    61    1
    31    11     9    1
    32    61    63    1
    33     9    10    1
    34     9     8    2
    35     8     7    1
    36    17    16    1
    37    56    54    1
    38    29    27    1
    39    48    49    2
    40    48    47    1
    41    16    13    1
    42    16    18    1
    43     7     6    1
    44    46    47    1
    45    54    53    2
    46    54    55    1
    47    53    52    1
    48    13    14    1
    49    13    12    1
    50    47    50    1
    51    50    51    1
    52    27    26    2
    53    27    28    1
    54    26    25    1
    55     6     5    1
    56    22    21    2
    57    14    15    2
    58    51    52    1
    59    45    42    1
    60    19    20    1
    61    25    24    1
    62     5     2    1
    63    23    24    1
    64    23    20    1
    65    21    20    1
    66    21    30   am
    67    41    42    1
    68    41    32   am
    69    44    43    2
    70    39    37   ar
    71    39    40   ar
    72    42    43    1
    73    37    35   ar
    74    31    30    1
    75    31    32    1
    76    31    34    1
    77     3     2    1
    78     3     4    2
    79     2     1    1
    80    32    33    2
    81    40    38   ar
    82    35    34    1
    83    35    36   ar
    84    38    36   ar
