@<TRIPOS>MOLECULE
tmp/1qb9A00.pdb
 154 150 0 0 0
SMALL
GASTEIGER

@<TRIPOS>ATOM
      1  N         29.5560   -4.1370   63.6230 N.3    40  HIS40      -0.1241
      2  CA        30.0070   -2.7420   63.2990 C.3    40  HIS40       0.1621
      3  C         29.6130   -1.7490   64.4110 C.2    40  HIS40       0.2264
      4  O         30.1620   -0.6090   64.4090 O.2    40  HIS40      -0.2867
      5  CB        29.6410   -2.2560   61.8870 C.3    40  HIS40       0.0745
      6  CG        28.2960   -1.6750   61.6320 C.ar   40  HIS40       0.0817
      7  ND1       27.2380   -2.4020   61.1300 N.ar   40  HIS40      -0.2268
      8  CD2       27.7750   -0.4580   61.9110 C.ar   40  HIS40       0.1154
      9  CE1       26.1430   -1.6530   61.0780 C.ar   40  HIS40       0.1986
     10  NE2       26.4550   -0.4780   61.5400 N.ar   40  HIS40      -0.2212
     11  N         35.3450   -6.1180   58.6520 N.3    78  SER78      -0.1202
     12  CA        34.9340   -4.7020   58.7180 C.3    78  SER78       0.2020
     13  C         34.9010   -4.0380   57.3590 C.2    78  SER78       0.2619
     14  O         34.1800   -3.0550   57.1280 O.2    78  SER78      -0.2717
     15  CB        35.8030   -3.9650   59.7270 C.3    78  SER78       0.2103
     16  OG        37.1460   -3.8810   59.3100 O.3    78  SER78      -0.2182
     17  N         35.6430   -4.6190   56.3940 N.am   79  ASN79      -0.1960
     18  CA        35.6850   -4.0390   55.0720 C.3    79  ASN79       0.1819
     19  C         34.4320   -4.3070   54.2400 C.2    79  ASN79       0.2622
     20  O         34.0010   -3.3830   53.5480 O.2    79  ASN79      -0.2715
     21  CB        37.0020   -4.4130   54.3930 C.3    79  ASN79       0.1195
     22  CG        38.1460   -3.6020   55.0300 C.2    79  ASN79       0.2630
     23  OD1       39.2830   -3.7470   54.6290 O.2    79  ASN79      -0.2716
     24  ND2       37.7950   -2.7600   55.9860 N.am   79  ASN79      -0.0877
     25  N         33.8770   -5.4570   54.3790 N.am   80  THR80      -0.1937
     26  CA        32.7360   -5.9250   53.5700 C.3    80  THR80       0.2028
     27  C         31.4320   -6.0540   54.3260 C.2    80  THR80       0.2642
     28  O         30.3280   -6.1030   53.7410 O.2    80  THR80      -0.2714
     29  CB        33.2060   -7.2980   52.8980 C.3    80  THR80       0.1808
     30  OG1       33.3090   -8.2330   54.0000 O.3    80  THR80      -0.2208
     31  CG2       34.5750   -7.2040   52.1890 C.3    80  THR80       0.0379
     32  N         31.5830   -6.1180   55.6540 N.am   81  LEU81      -0.1977
     33  CA        30.4960   -6.2660   56.6160 C.3    81  LEU81       0.1596
     34  C         29.9460   -7.6930   56.6090 C.2    81  LEU81       0.2287
     35  O         28.8630   -7.9610   57.1110 O.2    81  LEU81      -0.2864
     36  CB        29.4270   -5.1960   56.3890 C.3    81  LEU81       0.0297
     37  CG        29.7690   -3.7610   56.7220 C.3    81  LEU81       0.0022
     38  CD1       28.4770   -2.9290   56.9300 C.3    81  LEU81       0.0001
     39  CD2       30.5310   -3.7600   58.0390 C.3    81  LEU81       0.0001
     40  N         28.7640   -7.7830   43.4590 N.3   154  GLY154     -0.1210
     41  CA        29.9580   -8.2910   44.0940 C.3   154  GLY154      0.1956
     42  C         30.0940   -8.0290   45.5770 C.2   154  GLY154      0.2611
     43  O         31.1540   -8.3990   46.0790 O.2   154  GLY154     -0.2717
     44  N         29.0680   -7.4570   46.2020 N.am  155  GLN155     -0.1979
     45  CA        29.0520   -7.1100   47.6520 C.3   155  GLN155      0.1601
     46  C         28.1170   -7.9260   48.5300 C.2   155  GLN155      0.2287
     47  O         28.2300   -7.7730   49.7870 O.2   155  GLN155     -0.2864
     48  CB        28.6650   -5.6290   47.8580 C.3   155  GLN155      0.0394
     49  CG        29.3780   -4.6370   46.9670 C.3   155  GLN155      0.0908
     50  CD        29.3800   -3.2760   47.6270 C.2   155  GLN155      0.2608
     51  OE1       28.3610   -2.7100   47.9770 O.2   155  GLN155     -0.2717
     52  NE2       30.5750   -2.7440   47.8970 N.am  155  GLN155     -0.0878
     53  N         12.8720    2.5900   54.4380 N.3   171  ASP171     -0.1225
     54  CA        14.0790    1.7830   54.7380 C.3   171  ASP171      0.1805
     55  C         14.5020    2.1120   56.1840 C.2   171  ASP171      0.2598
     56  O         14.0050    3.0580   56.8310 O.2   171  ASP171     -0.2718
     57  CB        15.1420    2.3680   53.7910 C.3   171  ASP171      0.1424
     58  CG        16.4150    1.5980   53.5930 C.2   171  ASP171      0.3668
     59  OD1       17.2770    2.0990   52.8460 O.co2 171  ASP171     -0.2456
     60  OD2       16.5760    0.4720   54.1620 O.co2 171  ASP171     -0.2456
     61  N         15.5510    1.3780   56.5360 N.am  172  SER172     -0.1938
     62  CA        16.2710    1.6260   57.8270 C.3   172  SER172      0.2055
     63  C         17.3760    2.6140   57.4310 C.2   172  SER172      0.2643
     64  O         17.5890    2.7980   56.2120 O.2   172  SER172     -0.2714
     65  CB        16.8340    0.3930   58.4340 C.3   172  SER172      0.2130
     66  OG        17.8110   -0.2470   57.6380 O.3   172  SER172     -0.2179
     67  N         18.0550    3.1980   58.3820 N.am  173  CYS173     -0.1953
     68  CA        19.1230    4.2010   58.0830 C.3   173  CYS173      0.1843
     69  C         20.1330    4.2420   59.2120 C.2   173  CYS173      0.2625
     70  O         20.0480    3.4490   60.1830 O.2   173  CYS173     -0.2714
     71  CB        18.3670    5.5220   57.8870 C.3   173  CYS173      0.0997
     72  SG        19.2250    6.8750   57.0630 S.3   173  CYS173     -0.0797
     73  N         21.1220    5.1150   59.1400 N.am  174  GLN174     -0.1977
     74  CA        22.1530    5.2990   60.1890 C.3   174  GLN174      0.1601
     75  C         21.3820    5.5940   61.4940 C.2   174  GLN174      0.2287
     76  O         20.4300    6.4010   61.5260 O.2   174  GLN174     -0.2864
     77  CB        23.1220    6.4100   59.9440 C.3   174  GLN174      0.0394
     78  CG        23.1330    7.2270   58.6960 C.3   174  GLN174      0.0908
     79  CD        24.5470    7.5960   58.2440 C.2   174  GLN174      0.2608
     80  OE1       25.5080    7.0480   58.8010 O.2   174  GLN174     -0.2717
     81  NE2       24.6570    8.4680   57.2520 N.am  174  GLN174     -0.0878
     82  N         21.2390    0.8230   62.9850 N.3   177  SER177     -0.1217
     83  CA        22.2380   -0.2850   62.9820 C.3   177  SER177      0.1889
     84  C         22.2210   -1.1490   64.2050 C.2   177  SER177      0.2288
     85  O         22.2530   -0.6900   65.3560 O.2   177  SER177     -0.2866
     86  CB        23.6480    0.2510   62.7140 C.3   177  SER177      0.2089
     87  OG        23.8030    0.8120   61.4080 O.3   177  SER177     -0.2183
     88  N         20.0170   -4.9490   61.3310 N.3   191  VAL191     -0.1231
     89  CA        20.2620   -3.7780   60.4620 C.3   191  VAL191      0.1692
     90  C         21.7760   -3.6410   60.2840 C.2   191  VAL191      0.2593
     91  O         22.4550   -3.4300   61.2850 O.2   191  VAL191     -0.2718
     92  CB        19.6160   -2.5200   61.0660 C.3   191  VAL191      0.0266
     93  CG1       19.9990   -1.3200   60.2120 C.3   191  VAL191      0.0020
     94  CG2       18.1250   -2.5970   61.2840 C.3   191  VAL191      0.0020
     95  N         22.2650   -3.8050   59.0710 N.am  192  SER192     -0.1938
     96  CA        23.7360   -3.7930   58.8230 C.3   192  SER192      0.2055
     97  C         24.2140   -2.6550   57.9490 C.2   192  SER192      0.2643
     98  O         25.0480   -1.7980   58.3770 O.2   192  SER192     -0.2714
     99  CB        24.1220   -5.1800   58.2890 C.3   192  SER192      0.2130
    100  OG        25.5180   -5.2890   57.9830 O.3   192  SER192     -0.2179
    101  N         23.7620   -2.5560   56.6990 N.am  193  TRP193     -0.1959
    102  CA        24.2310   -1.4830   55.8390 C.3   193  TRP193      0.1771
    103  C         23.3020   -1.2280   54.6540 C.2   193  TRP193      0.2620
    104  O         22.2010   -1.7800   54.5390 O.2   193  TRP193     -0.2715
    105  CB        25.6570   -1.7290   55.3280 C.3   193  TRP193      0.0590
    106  CG        25.7710   -2.9180   54.4340 C.ar  193  TRP193      0.0006
    107  CD1       25.8440   -4.2220   54.8560 C.ar  193  TRP193      0.0946
    108  CD2       25.8740   -2.9610   53.0060 C.ar  193  TRP193      0.0152
    109  NE1       25.9850   -5.0570   53.7940 N.ar  193  TRP193     -0.2442
    110  CE2       26.0110   -4.3260   52.6390 C.ar  193  TRP193      0.0810
    111  CE3       25.9110   -1.9950   52.0050 C.ar  193  TRP193      0.0012
    112  CZ2       26.1340   -4.7550   51.3230 C.ar  193  TRP193      0.0191
    113  CZ3       26.0100   -2.4290   50.6790 C.ar  193  TRP193      0.0001
    114  CH2       26.1560   -3.7540   50.3340 C.ar  193  TRP193      0.0015
    115  N         23.8210   -0.3130   53.8390 N.am  194  GLY194     -0.1940
    116  CA        23.0470    0.1000   52.6530 C.3   194  GLY194      0.2014
    117  C         23.7920    1.2230   51.9370 C.2   194  GLY194      0.2640
    118  O         24.9290    1.6230   52.2870 O.2   194  GLY194     -0.2714
    119  N         23.0890    1.7140   50.9550 N.am  195  SER195     -0.1935
    120  CA        23.6100    2.8030   50.0990 C.3   195  SER195      0.2055
    121  C         22.6450    3.9650   50.2990 C.2   195  SER195      0.2644
    122  O         21.5960    3.9340   49.6590 O.2   195  SER195     -0.2714
    123  CB        23.7010    2.3700   48.6480 C.3   195  SER195      0.2130
    124  OG        24.6460    3.1900   47.9910 O.3   195  SER195     -0.2179
    125  N         23.0680    4.8580   51.1800 N.am  196  GLY196     -0.1939
    126  CA        22.1970    5.9950   51.5480 C.3   196  GLY196      0.2014
    127  C         21.0320    5.3440   52.3210 C.2   196  GLY196      0.2639
    128  O         21.2540    4.2890   52.9730 O.2   196  GLY196     -0.2714
    129  N         19.8600    5.9390   52.2600 N.am  197  CYS197     -0.1967
    130  CA        18.6620    5.4120   52.9330 C.3   197  CYS197      0.1712
    131  C         17.4170    5.7120   52.0710 C.2   197  CYS197      0.2296
    132  O         17.2770    6.8390   51.5860 O.2   197  CYS197     -0.2864
    133  CB        18.5000    6.0020   54.3190 C.3   197  CYS197      0.0983
    134  SG        19.9860    5.9450   55.3920 S.3   197  CYS197     -0.0798
    135  N         18.1350    0.8370   45.9190 N.3   202  LYS202     -0.1245
    136  CA        19.1720    0.6060   46.9360 C.3   202  LYS202      0.1561
    137  C         18.5110    0.2060   48.2790 C.2   202  LYS202      0.2260
    138  O         18.4560    1.0150   49.2260 O.2   202  LYS202     -0.2867
    139  CB        20.0750    1.7900   47.1380 C.3   202  LYS202      0.0271
    140  CG        21.1280    2.1040   46.0390 C.3   202  LYS202      0.0035
    141  CD        22.0240    0.8850   45.8400 C.3   202  LYS202      0.0206
    142  CE        23.0280    0.9630   44.7310 C.3   202  LYS202      0.1093
    143  NZ        22.4030    0.7900   43.3950 N.3   202  LYS202     -0.1314
    144  N         17.8190   -1.9080   51.8910 N.3   204  GLY204     -0.1210
    145  CA        18.5950   -2.1490   53.0960 C.3   204  GLY204      0.1956
    146  C         19.1500   -3.5860   53.0140 C.2   204  GLY204      0.2611
    147  O         18.5120   -4.4980   52.4360 O.2   204  GLY204     -0.2717
    148  N         20.3420   -3.6910   53.5440 N.am  205  VAL205     -0.1979
    149  CA        21.0050   -5.0330   53.5960 C.3   205  VAL205      0.1595
    150  C         21.0310   -5.4410   55.0650 C.2   205  VAL205      0.2287
    151  O         21.4660   -4.6550   55.9450 O.2   205  VAL205     -0.2864
    152  CB        22.3780   -4.9230   52.9250 C.3   205  VAL205      0.0276
    153  CG1       23.1300   -6.2700   53.0650 C.3   205  VAL205      0.0022
    154  CG2       22.3820   -4.3780   51.5120 C.3   205  VAL205      0.0022
@<TRIPOS>BOND
     1   143   142    1
     2    40    41    1
     3    41    42    1
     4   142   141    1
     5    42    43    2
     6    42    44   am
     7   141   140    1
     8   135   136    1
     9   140   139    1
    10    44    45    1
    11   136   139    1
    12   136   137    1
    13    49    50    1
    14    49    48    1
    15    50    52   am
    16    50    51    2
    17    45    48    1
    18    45    46    1
    19   124   123    1
    20   137   138    2
    21    46    47    2
    22   123   120    1
    23   122   121    2
    24   120   121    1
    25   120   119    1
    26   121   125   am
    27   114   113   ar
    28   114   112   ar
    29   113   111   ar
    30   119   117   am
    31   125   126    1
    32   112   110   ar
    33   154   152    1
    34   126   127    1
    35   132   131    2
    36   144   145    1
    37   117   118    2
    38   117   116    1
    39   111   108   ar
    40   131   130    1
    41    31    29    1
    42   129   127   am
    43   129   130    1
    44   127   128    2
    45   147   146    2
    46   110   108   ar
    47   110   109   ar
    48   116   115    1
    49    59    58   ar
    50    29    26    1
    51    29    30    1
    52   152   153    1
    53   152   149    1
    54   130   133    1
    55   108   106   ar
    56   146   145    1
    57   146   148   am
    58   148   149    1
    59    20    19    2
    60    26    27    1
    61    26    25    1
    62    58    57    1
    63    58    60   ar
    64   149   150    1
    65    28    27    2
    66    57    54    1
    67   109   107   ar
    68   115   103   am
    69    19    25   am
    70    19    18    1
    71   133   134    1
    72    27    32   am
    73    21    22    1
    74    21    18    1
    75   106   107   ar
    76   106   105    1
    77    53    54    1
    78   104   103    2
    79    23    22    2
    80   103   102    1
    81    54    55    1
    82    22    24   am
    83   150   151    2
    84    18    17    1
    85   105   102    1
    86   134    72    1
    87    32    33    1
    88   102   101    1
    89    55    61   am
    90    55    56    2
    91    64    63    2
    92    36    33    1
    93    36    37    1
    94    17    13   am
    95    61    62    1
    96    34    33    1
    97    34    35    2
    98   101    97   am
    99    37    38    1
   100    37    39    1
   101    72    71    1
   102    14    13    2
   103    81    79   am
   104    13    12    1
   105    63    62    1
   106    63    67   am
   107    66    65    1
   108    62    65    1
   109    71    68    1
   110    97    98    2
   111    97    96    1
   112   100    99    1
   113    68    67    1
   114    68    69    1
   115    79    78    1
   116    79    80    2
   117    99    96    1
   118    11    12    1
   119    78    77    1
   120    12    15    1
   121    96    95    1
   122    95    90   am
   123    73    69   am
   124    73    74    1
   125    69    70    2
   126    16    15    1
   127    77    74    1
   128    74    75    1
   129    93    92    1
   130    90    89    1
   131    90    91    2
   132    89    92    1
   133    89    88    1
   134    92    94    1
   135     9     7   ar
   136     9    10   ar
   137     7     6   ar
   138    87    86    1
   139    75    76    2
   140    10     8   ar
   141     6     5    1
   142     6     8   ar
   143     5     2    1
   144    86    83    1
   145    83    82    1
   146    83    84    1
   147     2     1    1
   148     2     3    1
   149    84    85    2
   150     4     3    2
