@<TRIPOS>MOLECULE
tmp/1qbnA00.pdb
 155 151 0 0 0
SMALL
GASTEIGER

@<TRIPOS>ATOM
      1  N         18.5320   23.7210   27.6060 N.3    40  HIS40      -0.1241
      2  CA        17.5840   24.8310   27.3120 C.3    40  HIS40       0.1621
      3  C         16.5200   24.9780   28.3930 C.2    40  HIS40       0.2264
      4  O         15.8090   26.0180   28.3470 O.2    40  HIS40      -0.2867
      5  CB        16.9870   24.7600   25.8800 C.3    40  HIS40       0.0745
      6  CG        15.8490   23.8120   25.6640 C.ar   40  HIS40       0.0817
      7  ND1       15.9700   22.5290   25.1430 N.ar   40  HIS40      -0.2268
      8  CD2       14.5310   23.9610   25.9360 C.ar   40  HIS40       0.1154
      9  CE1       14.7880   21.9480   25.1240 C.ar   40  HIS40       0.1986
     10  NE2       13.8830   22.8090   25.5980 N.ar   40  HIS40      -0.2212
     11  N         23.1130   27.7880   22.6750 N.3    78  SER78      -0.1202
     12  CA        21.6680   28.0650   22.6470 C.3    78  SER78       0.2020
     13  C         21.1340   28.3490   21.2620 C.2    78  SER78       0.2619
     14  O         19.9010   28.1360   21.0640 O.2    78  SER78      -0.2717
     15  CB        21.3250   29.2070   23.6010 C.3    78  SER78       0.2103
     16  OG        21.9780   30.3820   23.1850 O.3    78  SER78      -0.2182
     17  N         21.9750   28.7580   20.3290 N.am   79  ASN79      -0.1960
     18  CA        21.4530   29.0600   18.9800 C.3    79  ASN79       0.1819
     19  C         21.1400   27.8150   18.1650 C.2    79  ASN79       0.2622
     20  O         20.0980   27.7600   17.4890 O.2    79  ASN79      -0.2715
     21  CB        22.3700   30.0640   18.2840 C.3    79  ASN79       0.1195
     22  CG        22.2910   31.4680   18.8850 C.2    79  ASN79       0.2630
     23  OD1       22.7500   32.4370   18.2970 O.2    79  ASN79      -0.2716
     24  ND2       21.6880   31.6650   20.0530 N.am   79  ASN79      -0.0877
     25  N         22.0100   26.8360   18.2280 N.am   80  THR80      -0.1937
     26  CA        21.8780   25.5830   17.4660 C.3    80  THR80       0.2028
     27  C         21.2820   24.4280   18.2480 C.2    80  THR80       0.2642
     28  O         20.7950   23.4290   17.6520 O.2    80  THR80      -0.2714
     29  CB        23.3050   25.1870   16.9040 C.3    80  THR80       0.1808
     30  OG1       24.1250   24.8770   18.0660 O.3    80  THR80      -0.2208
     31  CG2       23.9720   26.2140   16.0010 C.3    80  THR80       0.0379
     32  N         21.2780   24.5550   19.5690 N.am   81  LEU81      -0.1977
     33  CA        20.8050   23.5500   20.5110 C.3    81  LEU81       0.1596
     34  C         21.7500   22.3540   20.5080 C.2    81  LEU81       0.2287
     35  O         21.3440   21.2690   20.9470 O.2    81  LEU81      -0.2864
     36  CB        19.3400   23.1640   20.2800 C.3    81  LEU81       0.0297
     37  CG        18.3300   24.2140   20.6610 C.3    81  LEU81       0.0022
     38  CD1       16.9280   23.5950   20.8270 C.3    81  LEU81       0.0001
     39  CD2       18.8170   24.8490   21.9560 C.3    81  LEU81       0.0001
     40  N         21.0920   21.5460   10.1220 N.3   155  GLN155     -0.1245
     41  CA        20.8710   21.7280   11.5810 C.3   155  GLN155      0.1566
     42  C         21.1320   20.5390   12.4740 C.2   155  GLN155      0.2260
     43  O         21.0380   20.7280   13.7290 O.2   155  GLN155     -0.2867
     44  CB        19.3870   22.0950   11.8360 C.3   155  GLN155      0.0367
     45  CG        18.7100   22.7800   10.6990 C.3   155  GLN155      0.0905
     46  CD        17.7500   23.8310   11.1850 C.2   155  GLN155      0.2608
     47  OE1       16.5610   23.6350   11.3920 O.2   155  GLN155     -0.2717
     48  NE2       18.3760   24.9790   11.4390 N.am  155  GLN155     -0.0878
     49  N          4.2310   12.4050   18.3340 N.3   171  ASP171     -0.1225
     50  CA         5.5090   13.1380   18.6350 C.3   171  ASP171      0.1805
     51  C          5.4950   13.6360   20.0800 C.2   171  ASP171      0.2598
     52  O          4.4960   13.5790   20.7670 O.2   171  ASP171     -0.2718
     53  CB         5.5500   14.3380   17.7050 C.3   171  ASP171      0.1424
     54  CG         6.8430   15.0640   17.4670 C.2   171  ASP171      0.3668
     55  OD1        6.8770   16.0350   16.6850 O.co2 171  ASP171     -0.2456
     56  OD2        7.8820   14.7250   18.0720 O.co2 171  ASP171     -0.2456
     57  N          6.6870   14.2020   20.4250 N.am  172  SER172     -0.1938
     58  CA         6.8010   14.8930   21.7530 C.3   172  SER172      0.2055
     59  C          6.4210   16.3470   21.3880 C.2   172  SER172      0.2643
     60  O          6.2280   16.6190   20.1670 O.2   172  SER172     -0.2714
     61  CB         8.1220   14.7610   22.4090 C.3   172  SER172      0.2130
     62  OG         9.2150   14.9810   21.5740 O.3   172  SER172     -0.2179
     63  N          6.3340   17.2420   22.3360 N.am  173  CYS173     -0.1953
     64  CA         5.9160   18.6280   22.0400 C.3   173  CYS173      0.1843
     65  C          6.3240   19.5490   23.1710 C.2   173  CYS173      0.2625
     66  O          7.0030   19.0830   24.1030 O.2   173  CYS173     -0.2714
     67  CB         4.3610   18.5860   21.8290 C.3   173  CYS173      0.0997
     68  SG         3.7270   20.0510   21.0000 S.3   173  CYS173     -0.0797
     69  N          5.9270   20.8200   23.0970 N.am  174  GLN174     -0.1977
     70  CA         6.2550   21.8140   24.1330 C.3   174  GLN174      0.1601
     71  C          5.7560   21.3010   25.4870 C.2   174  GLN174      0.2287
     72  O          4.5940   20.8980   25.5980 O.2   174  GLN174     -0.2864
     73  CB         5.6970   23.2010   23.9450 C.3   174  GLN174      0.0394
     74  CG         5.3800   23.8130   22.6440 C.3   174  GLN174      0.0908
     75  CD         5.9800   25.1840   22.3900 C.2   174  GLN174      0.2608
     76  OE1        6.8260   25.7080   23.1350 O.2   174  GLN174     -0.2717
     77  NE2        5.5490   25.7700   21.2690 N.am  174  GLN174     -0.0878
     78  N         10.0520   18.9180   26.8900 N.3   177  SER177     -0.1217
     79  CA        11.5060   19.1710   26.8710 C.3   177  SER177      0.1889
     80  C         12.2210   18.7350   28.1280 C.2   177  SER177      0.2288
     81  O         11.7310   19.0070   29.2470 O.2   177  SER177     -0.2866
     82  CB        11.7340   20.7030   26.7280 C.3   177  SER177      0.2089
     83  OG        11.6720   20.9170   25.3100 O.3   177  SER177     -0.2183
     84  N         14.4470   14.8760   25.3580 N.3   191  VAL191     -0.1231
     85  CA        13.5500   15.7010   24.4660 C.3   191  VAL191      0.1692
     86  C         14.2210   17.0840   24.2950 C.2   191  VAL191      0.2593
     87  O         14.4270   17.8390   25.2430 O.2   191  VAL191     -0.2718
     88  CB        12.1130   15.7750   24.9940 C.3   191  VAL191      0.0266
     89  CG1       11.2470   16.6150   24.0210 C.3   191  VAL191      0.0020
     90  CG2       11.4310   14.4520   25.2620 C.3   191  VAL191      0.0020
     91  N         14.5330   17.4120   23.0540 N.am  192  SER192     -0.1938
     92  CA        15.2270   18.6640   22.7710 C.3   192  SER192      0.2055
     93  C         14.4390   19.6750   21.9730 C.2   192  SER192      0.2643
     94  O         14.1480   20.7780   22.4920 O.2   192  SER192     -0.2714
     95  CB        16.6480   18.3870   22.2430 C.3   192  SER192      0.2130
     96  OG        17.3270   19.5920   21.9770 O.3   192  SER192     -0.2179
     97  N         14.1100   19.4010   20.7080 N.am  193  TRP193     -0.1959
     98  CA        13.3970   20.4070   19.9050 C.3   193  TRP193      0.1771
     99  C         12.6540   19.7250   18.7610 C.2   193  TRP193      0.2620
    100  O         12.7350   18.5040   18.5840 O.2   193  TRP193     -0.2715
    101  CB        14.3970   21.4670   19.3850 C.3   193  TRP193      0.0590
    102  CG        15.5090   20.9990   18.5250 C.ar  193  TRP193      0.0006
    103  CD1       16.7100   20.4630   18.9300 C.ar  193  TRP193      0.0946
    104  CD2       15.5910   21.0600   17.0890 C.ar  193  TRP193      0.0152
    105  NE1       17.5160   20.1890   17.8430 N.ar  193  TRP193     -0.2442
    106  CE2       16.8440   20.5490   16.7040 C.ar  193  TRP193      0.0810
    107  CE3       14.6980   21.5320   16.1110 C.ar  193  TRP193      0.0012
    108  CZ2       17.2680   20.4480   15.3770 C.ar  193  TRP193      0.0191
    109  CZ3       15.1190   21.4370   14.7770 C.ar  193  TRP193      0.0001
    110  CH2       16.3500   20.9210   14.4300 C.ar  193  TRP193      0.0015
    111  N         11.9870   20.5580   17.9930 N.am  194  GLY194     -0.1940
    112  CA        11.2320   20.0740   16.8190 C.3   194  GLY194      0.2014
    113  C         10.6920   21.3150   16.0740 C.2   194  GLY194      0.2640
    114  O         10.9430   22.4830   16.4570 O.2   194  GLY194     -0.2714
    115  N          9.9720   21.0020   15.0350 N.am  195  SER195     -0.1935
    116  CA         9.3180   22.0370   14.1900 C.3   195  SER195      0.2055
    117  C          7.8180   21.7110   14.2800 C.2   195  SER195      0.2644
    118  O          7.3940   20.7780   13.5920 O.2   195  SER195     -0.2714
    119  CB         9.8300   22.0150   12.7680 C.3   195  SER195      0.2130
    120  OG         9.0720   22.9510   12.0060 O.3   195  SER195     -0.2179
    121  N          7.1610   22.4610   15.1300 N.am  196  GLY196     -0.1939
    122  CA         5.7160   22.1910   15.3980 C.3   196  GLY196      0.2014
    123  C          5.7770   20.8690   16.2090 C.2   196  GLY196      0.2639
    124  O          6.8380   20.5820   16.7940 O.2   196  GLY196     -0.2714
    125  N          4.6970   20.1410   16.1780 N.am  197  CYS197     -0.1967
    126  CA         4.5740   18.8470   16.8380 C.3   197  CYS197      0.1712
    127  C          3.6960   17.9370   15.9690 C.2   197  CYS197      0.2296
    128  O          2.6270   18.3850   15.5210 O.2   197  CYS197     -0.2864
    129  CB         3.9450   18.9980   18.2230 C.3   197  CYS197      0.0983
    130  SG         4.7870   20.2590   19.2780 S.3   197  CYS197     -0.0798
    131  N          8.4580   16.1680    9.8630 N.3   202  LYS202     -0.1245
    132  CA         9.1090   17.0110   10.8920 C.3   202  LYS202      0.1561
    133  C          9.1360   16.2180   12.2000 C.2   202  LYS202      0.2260
    134  O          8.3910   16.5360   13.1430 O.2   202  LYS202     -0.2867
    135  CB         8.4340   18.3590   11.1190 C.3   202  LYS202      0.0271
    136  CG         8.5180   19.3930    9.9920 C.3   202  LYS202      0.0035
    137  CD         9.9000   19.6640    9.4760 C.3   202  LYS202      0.0206
    138  CE         9.9320   20.6370    8.3140 C.3   202  LYS202      0.1093
    139  NZ        10.7880   20.1180    7.2150 N.3   202  LYS202     -0.1314
    140  N         10.6310   14.6470   15.8410 N.3   204  GLY204     -0.1225
    141  CA        11.2480   15.2070   17.0510 C.3   204  GLY204      0.1811
    142  C         12.7860   15.0010   16.9710 C.2   204  GLY204      0.2280
    143  O         13.2600   14.0080   16.3710 O.2   204  GLY204     -0.2866
    144  N         16.2330   14.8650   19.3950 N.3   206  TYR206     -0.1241
    145  CA        16.6520   14.5090   20.7520 C.3   206  TYR206      0.1605
    146  C         18.1310   14.5330   21.0070 C.2   206  TYR206      0.2264
    147  O         18.9320   14.1600   20.1050 O.2   206  TYR206     -0.2867
    148  CB        16.1340   13.0030   20.9610 C.3   206  TYR206      0.0534
    149  CG        14.6550   12.8910   20.7860 C.ar  206  TYR206     -0.0201
    150  CD1       13.8090   13.1300   21.8780 C.ar  206  TYR206     -0.0009
    151  CD2       14.0560   12.6980   19.5100 C.ar  206  TYR206     -0.0009
    152  CE1       12.4190   13.1100   21.7620 C.ar  206  TYR206      0.0417
    153  CE2       12.6650   12.6760   19.4220 C.ar  206  TYR206      0.0417
    154  CZ        11.8530   12.8590   20.5060 C.ar  206  TYR206      0.1957
    155  OH        10.4900   12.8400   20.3790 O.3   206  TYR206     -0.2866
@<TRIPOS>BOND
     1   139   138    1
     2   138   137    1
     3   137   136    1
     4   131   132    1
     5   136   135    1
     6    40    41    1
     7    45    46    1
     8    45    44    1
     9   132   135    1
    10   132   133    1
    11    46    47    2
    12    46    48   am
    13    41    44    1
    14    41    42    1
    15   120   119    1
    16   133   134    2
    17    42    43    2
    18   119   116    1
    19   118   117    2
    20   116   117    1
    21   116   115    1
    22   117   121   am
    23   110   109   ar
    24   110   108   ar
    25   109   107   ar
    26   115   113   am
    27   121   122    1
    28   108   106   ar
    29   122   123    1
    30   128   127    2
    31   140   141    1
    32   127   126    1
    33    31    29    1
    34   113   114    2
    35   113   112    1
    36   107   104   ar
    37   125   123   am
    38   125   126    1
    39   123   124    2
    40   143   142    2
    41    55    54   ar
    42   106   104   ar
    43   106   105   ar
    44   112   111    1
    45   126   129    1
    46    29    26    1
    47    29    30    1
    48   142   141    1
    49   104   102   ar
    50    26    25    1
    51    26    27    1
    52    54    53    1
    53    54    56   ar
    54    20    19    2
    55    28    27    2
    56    53    50    1
    57   105   103   ar
    58   111    99   am
    59    19    25   am
    60    19    18    1
    61   129   130    1
    62    27    32   am
    63    21    22    1
    64    21    18    1
    65    23    22    2
    66    49    50    1
    67   102   103   ar
    68   102   101    1
    69   100    99    2
    70    50    51    1
    71    99    98    1
    72    22    24   am
    73    18    17    1
    74   130    68    1
    75   101    98    1
    76   144   145    1
    77   153   151   ar
    78   153   154   ar
    79   151   149   ar
    80    32    33    1
    81    98    97    1
    82    51    57   am
    83    51    52    2
    84   147   146    2
    85    60    59    2
    86    36    33    1
    87    36    37    1
    88    17    13   am
    89   155   154    1
    90    57    58    1
    91   154   152   ar
    92    34    33    1
    93    34    35    2
    94    37    38    1
    95    37    39    1
    96    97    93   am
    97   145   148    1
    98   145   146    1
    99   149   148    1
   100   149   150   ar
   101    68    67    1
   102    14    13    2
   103    13    12    1
   104    77    75   am
   105    59    58    1
   106    59    63   am
   107    62    61    1
   108    58    61    1
   109   152   150   ar
   110    67    64    1
   111    93    94    2
   112    93    92    1
   113    96    95    1
   114    64    63    1
   115    64    65    1
   116    95    92    1
   117    75    74    1
   118    75    76    2
   119    74    73    1
   120    12    11    1
   121    12    15    1
   122    92    91    1
   123    91    86   am
   124    69    65   am
   125    69    70    1
   126    65    66    2
   127    16    15    1
   128    73    70    1
   129    89    88    1
   130    70    71    1
   131    86    85    1
   132    86    87    2
   133    85    88    1
   134    85    84    1
   135    88    90    1
   136     9     7   ar
   137     9    10   ar
   138     7     6   ar
   139    83    82    1
   140    71    72    2
   141    10     8   ar
   142     6     5    1
   143     6     8   ar
   144     5     2    1
   145    82    79    1
   146    79    78    1
   147    79    80    1
   148     2     1    1
   149     2     3    1
   150    80    81    2
   151     4     3    2
