@<TRIPOS>MOLECULE
tmp/1qboA00.pdb
 143 139 0 0 0
SMALL
GASTEIGER

@<TRIPOS>ATOM
      1  N         29.8100   -4.3070   63.9620 N.3    40  HIS40      -0.1241
      2  CA        30.2690   -2.9450   63.6340 C.3    40  HIS40       0.1621
      3  C         29.8540   -1.9360   64.7000 C.2    40  HIS40       0.2264
      4  O         30.3140   -0.7840   64.6470 O.2    40  HIS40      -0.2867
      5  CB        29.9070   -2.4810   62.2050 C.3    40  HIS40       0.0745
      6  CG        28.5490   -1.9250   61.9470 C.ar   40  HIS40       0.0817
      7  ND1       27.4850   -2.6360   61.4680 N.ar   40  HIS40      -0.2268
      8  CD2       28.0900   -0.6820   62.1210 C.ar   40  HIS40       0.1154
      9  CE1       26.4300   -1.8600   61.3650 C.ar   40  HIS40       0.1986
     10  NE2       26.7880   -0.6360   61.7630 N.ar   40  HIS40      -0.2212
     11  N         35.7140   -6.2020   58.9940 N.3    78  SER78      -0.1202
     12  CA        35.1770   -4.8350   58.9980 C.3    78  SER78       0.2020
     13  C         35.1240   -4.1990   57.6150 C.2    78  SER78       0.2619
     14  O         34.3470   -3.2370   57.4370 O.2    78  SER78      -0.2717
     15  CB        35.9470   -3.9390   59.9450 C.3    78  SER78       0.2103
     16  OG        37.3220   -3.9510   59.6440 O.3    78  SER78      -0.2182
     17  N         35.8960   -4.7540   56.6880 N.am   79  ASN79      -0.1960
     18  CA        35.9110   -4.1590   55.3170 C.3    79  ASN79       0.1819
     19  C         34.6630   -4.4650   54.5070 C.2    79  ASN79       0.2622
     20  O         34.0760   -3.5590   53.8480 O.2    79  ASN79      -0.2715
     21  CB        37.2440   -4.4670   54.6620 C.3    79  ASN79       0.1195
     22  CG        38.3960   -3.6290   55.1770 C.2    79  ASN79       0.2630
     23  OD1       39.5360   -3.8240   54.7830 O.2    79  ASN79      -0.2716
     24  ND2       38.1590   -2.6730   56.0700 N.am   79  ASN79      -0.0877
     25  N         34.1930   -5.6730   54.5880 N.am   80  THR80      -0.1937
     26  CA        33.0450   -6.2430   53.8800 C.3    80  THR80       0.2028
     27  C         31.7770   -6.3130   54.6940 C.2    80  THR80       0.2642
     28  O         30.6360   -6.2930   54.1820 O.2    80  THR80      -0.2714
     29  CB        33.5180   -7.6360   53.2920 C.3    80  THR80       0.1808
     30  OG1       33.6640   -8.5560   54.4030 O.3    80  THR80      -0.2208
     31  CG2       34.8520   -7.5090   52.5100 C.3    80  THR80       0.0379
     32  N         31.9520   -6.2950   56.0230 N.am   81  LEU81      -0.1977
     33  CA        30.8260   -6.3870   56.9640 C.3    81  LEU81       0.1596
     34  C         30.2970   -7.8100   56.8950 C.2    81  LEU81       0.2287
     35  O         29.1710   -8.0400   57.3660 O.2    81  LEU81      -0.2864
     36  CB        29.7750   -5.3140   56.8620 C.3    81  LEU81       0.0297
     37  CG        30.0220   -3.8860   57.2500 C.3    81  LEU81       0.0022
     38  CD1       28.7510   -3.0550   57.4440 C.3    81  LEU81       0.0001
     39  CD2       30.7890   -3.8310   58.5750 C.3    81  LEU81       0.0001
     40  N         29.2030   -7.6090   46.4890 N.3   155  GLN155     -0.1245
     41  CA        29.1640   -7.2670   47.9340 C.3   155  GLN155      0.1566
     42  C         28.2620   -8.1050   48.8180 C.2   155  GLN155      0.2260
     43  O         28.3580   -7.9680   50.0790 O.2   155  GLN155     -0.2867
     44  CB        28.7020   -5.7740   48.0810 C.3   155  GLN155      0.0367
     45  CG        29.5590   -4.8320   47.2960 C.3   155  GLN155      0.0905
     46  CD        29.7690   -3.4380   47.7530 C.2   155  GLN155      0.2608
     47  OE1       28.9170   -2.5880   48.0390 O.2   155  GLN155     -0.2717
     48  NE2       31.0460   -3.0500   47.8080 N.am  155  GLN155     -0.0878
     49  N         12.8650    2.5220   54.7730 N.3   171  ASP171     -0.1225
     50  CA        14.0980    1.7200   55.0580 C.3   171  ASP171      0.1805
     51  C         14.5560    1.9940   56.5070 C.2   171  ASP171      0.2598
     52  O         14.0890    2.9400   57.1100 O.2   171  ASP171     -0.2718
     53  CB        15.1700    2.2250   54.0920 C.3   171  ASP171      0.1424
     54  CG        16.4670    1.5180   53.9210 C.2   171  ASP171      0.3668
     55  OD1       17.3960    2.0030   53.2220 O.co2 171  ASP171     -0.2456
     56  OD2       16.6650    0.4020   54.4360 O.co2 171  ASP171     -0.2456
     57  N         15.5770    1.2280   56.8720 N.am  172  SER172     -0.1938
     58  CA        16.2440    1.4460   58.1970 C.3   172  SER172      0.2055
     59  C         17.3320    2.4580   57.8330 C.2   172  SER172      0.2643
     60  O         17.4780    2.7280   56.5850 O.2   172  SER172     -0.2714
     61  CB        16.6260    0.1470   58.7890 C.3   172  SER172      0.2130
     62  OG        17.5410   -0.6230   58.0540 O.3   172  SER172     -0.2179
     63  N         18.0590    3.0380   58.7570 N.am  173  CYS173     -0.1953
     64  CA        19.1180    4.0150   58.4530 C.3   173  CYS173      0.1843
     65  C         20.1940    3.9840   59.5460 C.2   173  CYS173      0.2625
     66  O         20.1530    3.1110   60.4420 O.2   173  CYS173     -0.2714
     67  CB        18.4540    5.3770   58.2610 C.3   173  CYS173      0.0997
     68  SG        19.4010    6.6320   57.4190 S.3   173  CYS173     -0.0797
     69  N         21.1490    4.9020   59.4550 N.am  174  GLN174     -0.1977
     70  CA        22.2190    4.9950   60.4800 C.3   174  GLN174      0.1601
     71  C         21.5110    5.3940   61.7990 C.2   174  GLN174      0.2287
     72  O         20.5660    6.1920   61.7920 O.2   174  GLN174     -0.2864
     73  CB        23.4320    5.7650   60.1300 C.3   174  GLN174      0.0394
     74  CG        23.4080    7.0320   59.3420 C.3   174  GLN174      0.0908
     75  CD        24.8070    7.4290   58.8660 C.2   174  GLN174      0.2608
     76  OE1       25.8310    6.9490   59.3690 O.2   174  GLN174     -0.2717
     77  NE2       24.8680    8.3250   57.8910 N.am  174  GLN174     -0.0878
     78  N         21.4330    0.5420   63.2860 N.3   177  SER177     -0.1217
     79  CA        22.4520   -0.4870   63.2610 C.3   177  SER177      0.1889
     80  C         22.4210   -1.3530   64.5210 C.2   177  SER177      0.2288
     81  O         22.3250   -0.7660   65.6300 O.2   177  SER177     -0.2866
     82  CB        23.8330    0.1480   63.0620 C.3   177  SER177      0.2089
     83  OG        23.8820    0.8730   61.8320 O.3   177  SER177     -0.2183
     84  N         20.2180   -5.1340   61.6630 N.3   191  VAL191     -0.1231
     85  CA        20.4150   -3.9570   60.8140 C.3   191  VAL191      0.1692
     86  C         21.9460   -3.8730   60.6190 C.2   191  VAL191      0.2593
     87  O         22.6600   -3.7300   61.5980 O.2   191  VAL191     -0.2718
     88  CB        19.8080   -2.6570   61.3300 C.3   191  VAL191      0.0266
     89  CG1       20.0830   -1.4810   60.3680 C.3   191  VAL191      0.0020
     90  CG2       18.3480   -2.6530   61.6390 C.3   191  VAL191      0.0020
     91  N         22.3820   -3.9700   59.3660 N.am  192  SER192     -0.1938
     92  CA        23.8380   -3.9580   59.0900 C.3   192  SER192      0.2055
     93  C         24.3120   -2.7920   58.2700 C.2   192  SER192      0.2643
     94  O         25.0130   -1.8640   58.7470 O.2   192  SER192     -0.2714
     95  CB        24.2700   -5.3750   58.6180 C.3   192  SER192      0.2130
     96  OG        25.6830   -5.3940   58.3930 O.3   192  SER192     -0.2179
     97  N         23.9620   -2.6980   56.9790 N.am  193  TRP193     -0.1959
     98  CA        24.4580   -1.5970   56.1360 C.3   193  TRP193      0.1771
     99  C         23.4550   -1.3120   54.9930 C.2   193  TRP193      0.2620
    100  O         22.3310   -1.8170   54.9860 O.2   193  TRP193     -0.2715
    101  CB        25.8770   -1.8680   55.6570 C.3   193  TRP193      0.0590
    102  CG        26.0700   -3.1240   54.8500 C.ar  193  TRP193      0.0006
    103  CD1       26.2230   -4.3970   55.2800 C.ar  193  TRP193      0.0946
    104  CD2       26.1450   -3.1990   53.4000 C.ar  193  TRP193      0.0152
    105  NE1       26.3800   -5.2850   54.2240 N.ar  193  TRP193     -0.2442
    106  CE2       26.3270   -4.5470   53.0620 C.ar  193  TRP193      0.0810
    107  CE3       26.1060   -2.2220   52.3870 C.ar  193  TRP193      0.0012
    108  CZ2       26.4490   -4.9990   51.7540 C.ar  193  TRP193      0.0191
    109  CZ3       26.2040   -2.6700   51.0550 C.ar  193  TRP193      0.0001
    110  CH2       26.3880   -4.0220   50.7770 C.ar  193  TRP193      0.0015
    111  N         23.9050   -0.4260   54.1440 N.am  194  GLY194     -0.1940
    112  CA        23.0720    0.0020   52.9580 C.3   194  GLY194      0.2014
    113  C         23.8660    1.1520   52.2900 C.2   194  GLY194      0.2640
    114  O         25.0040    1.4830   52.7010 O.2   194  GLY194     -0.2714
    115  N         23.2080    1.6990   51.3060 N.am  195  SER195     -0.1935
    116  CA        23.7740    2.8600   50.5570 C.3   195  SER195      0.2055
    117  C         22.7090    3.9630   50.7320 C.2   195  SER195      0.2644
    118  O         21.6730    3.7970   50.0810 O.2   195  SER195     -0.2714
    119  CB        23.9530    2.5570   49.0800 C.3   195  SER195      0.2130
    120  OG        24.6510    3.6500   48.4440 O.3   195  SER195     -0.2179
    121  N         23.0580    4.9420   51.5380 N.am  196  GLY196     -0.1939
    122  CA        22.0940    6.0260   51.8580 C.3   196  GLY196      0.2014
    123  C         20.9810    5.2850   52.6370 C.2   196  GLY196      0.2639
    124  O         21.2080    4.1670   53.1490 O.2   196  GLY196     -0.2714
    125  N         19.8220    5.8730   52.6310 N.am  197  CYS197     -0.1967
    126  CA        18.6480    5.2730   53.2950 C.3   197  CYS197      0.1712
    127  C         17.4470    5.6550   52.4240 C.2   197  CYS197      0.2296
    128  O         17.3720    6.8090   51.9780 O.2   197  CYS197     -0.2864
    129  CB        18.4900    5.8140   54.7210 C.3   197  CYS197      0.0983
    130  SG        20.0450    5.6700   55.7010 S.3   197  CYS197     -0.0798
    131  N         18.2360    0.6190   46.2700 N.3   202  LYS202     -0.1245
    132  CA        19.3250    0.4150   47.2680 C.3   202  LYS202      0.1561
    133  C         18.6310    0.0580   48.6070 C.2   202  LYS202      0.2260
    134  O         18.5050    0.9200   49.5000 O.2   202  LYS202     -0.2867
    135  CB        20.1800    1.6370   47.4010 C.3   202  LYS202      0.0271
    136  CG        21.1830    1.9560   46.2660 C.3   202  LYS202      0.0035
    137  CD        22.0960    0.7510   46.0620 C.3   202  LYS202      0.0206
    138  CE        23.3190    1.0270   45.2280 C.3   202  LYS202      0.1093
    139  NZ        22.9240    1.1860   43.7970 N.3   202  LYS202     -0.1314
    140  N         17.9020   -2.0420   52.2380 N.3   204  GLY204     -0.1225
    141  CA        18.7970   -2.3050   53.4070 C.3   204  GLY204      0.1811
    142  C         19.3620   -3.7060   53.3350 C.2   204  GLY204      0.2280
    143  O         18.7280   -4.6460   52.8170 O.2   204  GLY204     -0.2866
@<TRIPOS>BOND
     1   139   138    1
     2   138   137    1
     3   137   136    1
     4   136   135    1
     5   131   132    1
     6    40    41    1
     7   132   135    1
     8   132   133    1
     9    45    46    1
    10    45    44    1
    11    46    48   am
    12    46    47    2
    13    41    44    1
    14    41    42    1
    15   120   119    1
    16   133   134    2
    17    42    43    2
    18   119   116    1
    19   118   117    2
    20   116   117    1
    21   116   115    1
    22   117   121   am
    23   110   109   ar
    24   110   108   ar
    25   109   107   ar
    26   115   113   am
    27   121   122    1
    28   108   106   ar
    29   122   123    1
    30   128   127    2
    31   140   141    1
    32   113   114    2
    33   113   112    1
    34   107   104   ar
    35   127   126    1
    36    31    29    1
    37   125   123   am
    38   125   126    1
    39   123   124    2
    40   143   142    2
    41   112   111    1
    42   106   104   ar
    43   106   105   ar
    44    55    54   ar
    45    29    26    1
    46    29    30    1
    47   126   129    1
    48   142   141    1
    49   104   102   ar
    50    20    19    2
    51    26    25    1
    52    26    27    1
    53    54    53    1
    54    54    56   ar
    55    53    50    1
    56   111    99   am
    57    28    27    2
    58   105   103   ar
    59    19    25   am
    60    19    18    1
    61    21    22    1
    62    21    18    1
    63    27    32   am
    64   129   130    1
    65    49    50    1
    66    23    22    2
    67   102   103   ar
    68   102   101    1
    69   100    99    2
    70    99    98    1
    71    50    51    1
    72    22    24   am
    73    18    17    1
    74   101    98    1
    75   130    68    1
    76    32    33    1
    77    98    97    1
    78    51    57   am
    79    51    52    2
    80    60    59    2
    81    17    13   am
    82    36    33    1
    83    36    37    1
    84    57    58    1
    85    34    33    1
    86    34    35    2
    87    97    93   am
    88    37    38    1
    89    37    39    1
    90    68    67    1
    91    14    13    2
    92    13    12    1
    93    59    58    1
    94    59    63   am
    95    77    75   am
    96    62    61    1
    97    58    61    1
    98    67    64    1
    99    93    94    2
   100    93    92    1
   101    96    95    1
   102    64    63    1
   103    64    65    1
   104    95    92    1
   105    75    74    1
   106    75    76    2
   107    11    12    1
   108    12    15    1
   109    92    91    1
   110    74    73    1
   111    91    86   am
   112    69    65   am
   113    69    70    1
   114    65    66    2
   115    16    15    1
   116    73    70    1
   117    89    88    1
   118    70    71    1
   119    86    85    1
   120    86    87    2
   121    85    88    1
   122    85    84    1
   123    88    90    1
   124     9     7   ar
   125     9    10   ar
   126     7     6   ar
   127    10     8   ar
   128    72    71    2
   129    83    82    1
   130     6     8   ar
   131     6     5    1
   132     5     2    1
   133    82    79    1
   134    79    78    1
   135    79    80    1
   136     2     1    1
   137     2     3    1
   138    80    81    2
   139     4     3    2
