@<TRIPOS>MOLECULE
tmp/1qbqB00.pdb
 172 168 0 0 0
SMALL
GASTEIGER

@<TRIPOS>ATOM
      1  N        182.6240  136.6430   26.8880 N.3    76  ALA76      -0.1231
      2  CA       182.2310  135.5360   26.0210 C.3    76  ALA76       0.1694
      3  C        182.1030  134.2660   26.8580 C.2    76  ALA76       0.2592
      4  O        182.0110  133.1640   26.3260 O.2    76  ALA76      -0.2718
      5  CB       183.2320  135.3470   24.8770 C.3    76  ALA76       0.0304
      6  N        182.0240  134.4530   28.1760 N.am   77  SER77      -0.1952
      7  CA       181.8830  133.3490   29.1280 C.3    77  SER77       0.1924
      8  C        180.7860  133.6520   30.1350 C.2    77  SER77       0.2314
      9  O        180.9170  133.3020   31.3180 O.2    77  SER77      -0.2863
     10  CB       183.1720  133.1480   29.9180 C.3    77  SER77       0.2116
     11  OG       184.2700  133.0150   29.0490 O.3    77  SER77      -0.2180
     12  N        179.1250  130.8820   32.0390 N.3    80  TRP80      -0.1241
     13  CA       180.0690  130.3800   33.0230 C.3    80  TRP80       0.1605
     14  C        179.9130  131.1750   34.3000 C.2    80  TRP80       0.2264
     15  O        179.9490  130.6130   35.3850 O.2    80  TRP80      -0.2867
     16  CB       181.5050  130.5290   32.5320 C.3    80  TRP80       0.0550
     17  CG       181.9610  129.4050   31.6660 C.ar   80  TRP80       0.0003
     18  CD1      182.1810  129.4490   30.3240 C.ar   80  TRP80       0.0946
     19  CD2      182.2920  128.0660   32.0890 C.ar   80  TRP80       0.0152
     20  NE1      182.6310  128.2290   29.8850 N.ar   80  TRP80      -0.2442
     21  CE2      182.7130  127.3630   30.9440 C.ar   80  TRP80       0.0810
     22  CE3      182.2740  127.3980   33.3270 C.ar   80  TRP80       0.0012
     23  CZ2      183.1210  126.0180   30.9910 C.ar   80  TRP80       0.0191
     24  CZ3      182.6840  126.0540   33.3740 C.ar   80  TRP80       0.0001
     25  CH2      183.1010  125.3840   32.2080 C.ar   80  TRP80       0.0015
     26  N        179.3050  129.3630   37.7980 N.3    84  TRP84      -0.1241
     27  CA       180.2220  129.4760   38.9350 C.3    84  TRP84       0.1605
     28  C        179.5500  130.0760   40.1790 C.2    84  TRP84       0.2264
     29  O        179.7310  129.5860   41.2970 O.2    84  TRP84      -0.2867
     30  CB       181.4440  130.3230   38.5700 C.3    84  TRP84       0.0550
     31  CG       182.3160  129.7900   37.4580 C.ar   84  TRP84       0.0003
     32  CD1      182.6360  128.4880   37.2080 C.ar   84  TRP84       0.0946
     33  CD2      183.0060  130.5670   36.4770 C.ar   84  TRP84       0.0152
     34  NE1      183.4800  128.4040   36.1320 N.ar   84  TRP84      -0.2442
     35  CE2      183.7260  129.6660   35.6620 C.ar   84  TRP84       0.0810
     36  CE3      183.0920  131.9440   36.2100 C.ar   84  TRP84       0.0012
     37  CZ2      184.5240  130.0930   34.5950 C.ar   84  TRP84       0.0191
     38  CZ3      183.8810  132.3720   35.1550 C.ar   84  TRP84       0.0001
     39  CH2      184.5910  131.4430   34.3550 C.ar   84  TRP84       0.0015
     40  N        178.5100  132.6000   24.3450 N.3   120  GLY120     -0.1225
     41  CA       179.0740  133.2080   25.5490 C.3   120  GLY120      0.1811
     42  C        178.2680  134.3880   26.0810 C.2   120  GLY120      0.2280
     43  O        178.5340  134.9030   27.1730 O.2   120  GLY120     -0.2866
     44  N        179.0530  127.3450   21.6610 N.3   127  HIS127     -0.1241
     45  CA       180.3870  126.8110   21.9060 C.3   127  HIS127      0.1621
     46  C        180.1050  125.8090   23.0000 C.2   127  HIS127      0.2264
     47  O        179.2060  126.0380   23.8060 O.2   127  HIS127     -0.2867
     48  CB       181.2620  127.9740   22.4090 C.3   127  HIS127      0.0745
     49  CG       182.7120  127.6440   22.6250 C.ar  127  HIS127      0.0817
     50  ND1      183.1530  126.8550   23.6630 N.ar  127  HIS127     -0.2268
     51  CD2      183.8280  128.1180   22.0210 C.ar  127  HIS127      0.1154
     52  CE1      184.4720  126.8670   23.7000 C.ar  127  HIS127      0.1986
     53  NE2      184.9080  127.6290   22.7140 N.ar  127  HIS127     -0.2212
     54  N        181.8840  124.9270   25.6680 N.3   129  ALA129     -0.1231
     55  CA       182.1950  125.3350   27.0520 C.3   129  ALA129      0.1679
     56  C        180.9900  126.0700   27.6820 C.2   129  ALA129      0.2434
     57  O        180.5630  125.6940   28.7740 O.2   129  ALA129     -0.2733
     58  CB       183.4950  126.1360   27.1310 C.3   129  ALA129      0.0304
     59  N        180.4230  127.1110   26.9970 N.am  130  PRO130     -0.2729
     60  CA       179.2530  127.8650   27.4840 C.3   130  PRO130      0.1401
     61  C        177.9780  126.9470   27.5490 C.2   130  PRO130      0.2269
     62  O        177.1180  127.1350   28.4290 O.2   130  PRO130     -0.2865
     63  CB       179.0840  128.9650   26.4200 C.3   130  PRO130      0.0296
     64  CG       180.4320  129.2020   25.9560 C.3   130  PRO130      0.0237
     65  CD       181.0000  127.8100   25.8290 C.3   130  PRO130      0.0939
     66  N        188.7180  124.8250   17.8770 N.3   176  GLU176     -0.1245
     67  CA       189.7040  123.8170   18.2420 C.3   176  GLU176      0.1567
     68  C        189.1700  122.5040   18.7940 C.2   176  GLU176      0.2260
     69  O        188.0310  122.4130   19.2050 O.2   176  GLU176     -0.2867
     70  CB       190.6660  124.3860   19.2820 C.3   176  GLU176      0.0388
     71  CG       190.0790  124.5430   20.6800 C.3   176  GLU176      0.1160
     72  CD       189.3340  125.8520   20.8870 C.2   176  GLU176      0.3649
     73  OE1      189.0000  126.5560   19.8970 O.co2 176  GLU176     -0.2457
     74  OE2      189.0810  126.1780   22.0630 O.co2 176  GLU176     -0.2457
     75  N        188.1890  118.7170   26.4320 N.3   180  ARG180     -0.1245
     76  CA       187.0600  119.4630   26.9970 C.3   180  ARG180      0.1563
     77  C        185.7920  119.2220   26.1510 C.2   180  ARG180      0.2260
     78  O        184.6980  119.1230   26.6940 O.2   180  ARG180     -0.2867
     79  CB       187.3270  120.9920   27.0440 C.3   180  ARG180      0.0307
     80  CG       188.5130  121.5200   27.8660 C.3   180  ARG180      0.0489
     81  CD       188.6870  123.0280   27.6120 C.3   180  ARG180      0.2205
     82  NE       189.0800  123.3100   26.2240 N.pl3 180  ARG180     -0.0865
     83  CZ       188.7330  124.3870   25.5110 C.cat 180  ARG180      0.5346
     84  NH1      189.1710  124.5170   24.2600 N.pl3 180  ARG180      0.1354
     85  NH2      187.9530  125.3300   26.0240 N.pl3 180  ARG180      0.1354
     86  N        197.4660  125.1330   43.0240 N.3   275  ASP275     -0.1239
     87  CA       196.4610  126.0750   42.5660 C.3   275  ASP275      0.1674
     88  C        195.1080  125.5770   43.0360 C.2   275  ASP275      0.2266
     89  O        194.6640  124.4900   42.6880 O.2   275  ASP275     -0.2867
     90  CB       196.4780  126.2240   41.0440 C.3   275  ASP275      0.1410
     91  CG       195.3900  127.1660   40.5340 C.2   275  ASP275      0.3668
     92  OD1      194.5880  127.6630   41.3370 O.co2 275  ASP275     -0.2456
     93  OD2      195.3180  127.4120   39.3180 O.co2 275  ASP275     -0.2456
     94  N        192.0360  125.9050   42.0810 N.3   277  CYS277     -0.1221
     95  CA       190.9900  125.3620   41.2070 C.3   277  CYS277      0.1808
     96  C        191.2180  123.8810   41.0060 C.2   277  CYS277      0.2601
     97  O        190.2780  123.1390   40.7590 O.2   277  CYS277     -0.2717
     98  CB       190.9270  126.0730   39.8640 C.3   277  CYS277      0.0970
     99  SG       192.4770  126.0870   38.9430 S.3   277  CYS277     -0.0800
    100  N        192.4580  123.4420   41.1860 N.am  278  TYR278     -0.1976
    101  CA       192.7780  122.0290   41.0220 C.3   278  TYR278      0.1639
    102  C        192.3550  121.1760   42.1970 C.2   278  TYR278      0.2290
    103  O        192.5540  119.9590   42.2030 O.2   278  TYR278     -0.2864
    104  CB       194.2540  121.8260   40.7330 C.3   278  TYR278      0.0560
    105  CG       194.6090  122.2780   39.3540 C.ar  278  TYR278     -0.0198
    106  CD1      195.3620  123.4310   39.1560 C.ar  278  TYR278     -0.0009
    107  CD2      194.1250  121.5900   38.2370 C.ar  278  TYR278     -0.0009
    108  CE1      195.6160  123.8910   37.8880 C.ar  278  TYR278      0.0417
    109  CE2      194.3750  122.0420   36.9660 C.ar  278  TYR278      0.0417
    110  CZ       195.1180  123.1930   36.7980 C.ar  278  TYR278      0.1957
    111  OH       195.3610  123.6570   35.5390 O.3   278  TYR278     -0.2866
    112  N        189.5570  119.8170   40.0130 N.3   281  TRP281     -0.1241
    113  CA       189.9310  119.0810   38.8210 C.3   281  TRP281      0.1605
    114  C        190.7640  117.8410   39.1290 C.2   281  TRP281      0.2264
    115  O        190.5480  116.7850   38.5240 O.2   281  TRP281     -0.2867
    116  CB       190.6330  119.9840   37.7970 C.3   281  TRP281      0.0550
    117  CG       189.8430  121.2230   37.3360 C.ar  281  TRP281      0.0003
    118  CD1      190.2400  122.5240   37.4700 C.ar  281  TRP281      0.0946
    119  CD2      188.5850  121.2630   36.6070 C.ar  281  TRP281      0.0152
    120  NE1      189.3270  123.3630   36.8680 N.ar  281  TRP281     -0.2442
    121  CE2      188.3020  122.6200   36.3400 C.ar  281  TRP281      0.0810
    122  CE3      187.6820  120.2890   36.1570 C.ar  281  TRP281      0.0012
    123  CZ2      187.1520  123.0290   35.6450 C.ar  281  TRP281      0.0191
    124  CZ3      186.5290  120.6960   35.4540 C.ar  281  TRP281      0.0001
    125  CH2      186.2790  122.0570   35.2110 C.ar  281  TRP281      0.0015
    126  N        193.4200  131.3060   43.7500 N.3   330  ASP330     -0.1239
    127  CA       194.4540  130.3810   43.3380 C.3   330  ASP330      0.1674
    128  C        195.3330  130.0190   44.5190 C.2   330  ASP330      0.2266
    129  O        195.4010  128.8700   44.9290 O.2   330  ASP330     -0.2867
    130  CB       195.2480  131.0550   42.1960 C.3   330  ASP330      0.1410
    131  CG       196.4960  130.2800   41.7490 C.2   330  ASP330      0.3668
    132  OD1      197.0930  129.4900   42.5040 O.co2 330  ASP330     -0.2456
    133  OD2      196.9290  130.5140   40.6090 O.co2 330  ASP330     -0.2456
    134  N        197.3430  135.9180   44.7870 N.3   334  LYS334     -0.1245
    135  CA       196.5060  135.8830   43.5970 C.3   334  LYS334      0.1561
    136  C        195.2060  136.6040   43.8610 C.2   334  LYS334      0.2260
    137  O        194.7830  136.7020   45.0010 O.2   334  LYS334     -0.2867
    138  CB       196.2110  134.4270   43.2530 C.3   334  LYS334      0.0271
    139  CG       197.4560  133.6370   42.9240 C.3   334  LYS334      0.0035
    140  CD       198.0690  134.2160   41.6880 C.3   334  LYS334      0.0206
    141  CE       199.1020  133.3280   41.0510 C.3   334  LYS334      0.1093
    142  NZ       199.2150  133.6760   39.5960 N.3   334  LYS334     -0.1314
    143  N        188.2230  135.4880   42.0610 N.3   337  ASP337     -0.1239
    144  CA       187.3300  135.4130   40.9230 C.3   337  ASP337      0.1674
    145  C        186.3730  134.2600   41.1750 C.2   337  ASP337      0.2266
    146  O        186.6250  133.3840   42.0140 O.2   337  ASP337     -0.2867
    147  CB       188.1020  135.2350   39.5990 C.3   337  ASP337      0.1410
    148  CG       189.0350  134.0210   39.5980 C.2   337  ASP337      0.3668
    149  OD1      188.5470  132.8940   39.4060 O.co2 337  ASP337     -0.2456
    150  OD2      190.2630  134.1910   39.7740 O.co2 337  ASP337     -0.2456
    151  N        185.6920  131.7380   39.2890 N.3   339  TYR339     -0.1227
    152  CA       186.1450  130.4340   38.8240 C.3   339  TYR339      0.1736
    153  C        186.8180  129.7030   39.9570 C.2   339  TYR339      0.2595
    154  O        186.5050  128.5530   40.2370 O.2   339  TYR339     -0.2718
    155  CB       187.0840  130.6050   37.6180 C.3   339  TYR339      0.0548
    156  CG       187.9450  129.4150   37.3080 C.ar  339  TYR339     -0.0200
    157  CD1      187.4410  128.3170   36.6250 C.ar  339  TYR339     -0.0009
    158  CD2      189.2450  129.3650   37.7580 C.ar  339  TYR339     -0.0009
    159  CE1      188.2270  127.1940   36.4140 C.ar  339  TYR339      0.0417
    160  CE2      190.0240  128.2550   37.5560 C.ar  339  TYR339      0.0417
    161  CZ       189.5170  127.1740   36.8940 C.ar  339  TYR339      0.1957
    162  OH       190.3060  126.0590   36.7780 O.3   339  TYR339     -0.2866
    163  N        187.7470  130.3740   40.6240 N.am  340  HIS340     -0.1975
    164  CA       188.4200  129.7720   41.7710 C.3   340  HIS340      0.1656
    165  C        187.4480  129.6570   42.9420 C.2   340  HIS340      0.2291
    166  O        187.5800  128.7590   43.7770 O.2   340  HIS340     -0.2864
    167  CB       189.6150  130.5980   42.1730 C.3   340  HIS340      0.0771
    168  CG       190.7600  130.4560   41.2410 C.ar  340  HIS340      0.0820
    169  ND1      191.0380  131.3800   40.2570 N.ar  340  HIS340     -0.2267
    170  CD2      191.6690  129.4620   41.1000 C.ar  340  HIS340      0.1154
    171  CE1      192.0700  130.9570   39.5450 C.ar  340  HIS340      0.1986
    172  NE2      192.4700  129.7950   40.0370 N.ar  340  HIS340     -0.2212
@<TRIPOS>BOND
     1    66    67    1
     2    67    68    1
     3    67    70    1
     4    68    69    2
     5    70    71    1
     6    73    72   ar
     7    71    72    1
     8    72    74   ar
     9    44    45    1
    10    45    48    1
    11    45    46    1
    12    51    49   ar
    13    51    53   ar
    14    48    49    1
    15    49    50   ar
    16    53    52   ar
    17    46    47    2
    18    50    52   ar
    19    84    83    1
    20    40    41    1
    21     5     2    1
    22    83    85    1
    23    83    82    2
    24    41    42    1
    25    54    55    1
    26    65    64    1
    27    65    59    1
    28    64    63    1
    29     2     3    1
    30     2     1    1
    31    42    43    2
    32    77    78    2
    33    77    76    1
    34    82    81    1
    35     4     3    2
    36    63    60    1
    37    75    76    1
    38     3     6   am
    39    59    60    1
    40    59    56   am
    41    76    79    1
    42    79    80    1
    43    55    58    1
    44    55    56    1
    45    60    61    1
    46    61    62    2
    47    81    80    1
    48    56    57    2
    49     6     7    1
    50    11    10    1
    51     7    10    1
    52     7     8    1
    53    20    18   ar
    54    20    21   ar
    55     8     9    2
    56    18    17   ar
    57    21    23   ar
    58    21    19   ar
    59    23    25   ar
    60    17    19   ar
    61    17    16    1
    62    12    13    1
    63    19    22   ar
    64    25    24   ar
    65    16    13    1
    66    13    14    1
    67    22    24   ar
    68    14    15    2
    69    39    37   ar
    70    39    38   ar
    71    37    35   ar
    72    38    36   ar
    73   125   124   ar
    74   125   123   ar
    75   124   122   ar
    76   111   110    1
    77   123   121   ar
    78    35    34   ar
    79    35    33   ar
    80    34    32   ar
    81   122   119   ar
    82    36    33   ar
    83   121   119   ar
    84   121   120   ar
    85   159   157   ar
    86   159   161   ar
    87    33    31   ar
    88   119   117   ar
    89   157   156   ar
    90   162   161    1
    91   110   109   ar
    92   110   108   ar
    93   120   118   ar
    94   161   160   ar
    95   109   107   ar
    96    32    31   ar
    97   156   155    1
    98   156   158   ar
    99   117   118   ar
   100   117   116    1
   101    31    30    1
   102   160   158   ar
   103   155   152    1
   104   116   113    1
   105    26    27    1
   106   108   106   ar
   107   107   105   ar
   108   115   114    2
   109    30    27    1
   110   113   114    1
   111   113   112    1
   112   152   151    1
   113   152   153    1
   114    27    28    1
   115    99    98    1
   116   106   105   ar
   117    93    91   ar
   118   105   104    1
   119   149   148   ar
   120   171   172   ar
   121   171   169   ar
   122   142   141    1
   123   148   147    1
   124   148   150   ar
   125   147   144    1
   126    98    95    1
   127   153   154    2
   128   153   163   am
   129   172   170   ar
   130    28    29    2
   131   169   168   ar
   132    91    90    1
   133    91    92   ar
   134   133   131   ar
   135   163   164    1
   136   104   101    1
   137    97    96    2
   138   144   145    1
   139   144   143    1
   140    96   100   am
   141    96    95    1
   142   101   100    1
   143   101   102    1
   144    90    87    1
   145   141   140    1
   146   170   168   ar
   147   145   146    2
   148    95    94    1
   149   168   167    1
   150   140   139    1
   151   131   130    1
   152   131   132   ar
   153   164   167    1
   154   164   165    1
   155   130   127    1
   156   102   103    2
   157    87    86    1
   158    87    88    1
   159    89    88    2
   160   139   138    1
   161   165   166    2
   162   138   135    1
   163   127   126    1
   164   127   128    1
   165   135   136    1
   166   135   134    1
   167   136   137    2
   168   128   129    2
