@<TRIPOS>MOLECULE
tmp/1qbsA00.pdb
 120 112 0 0 0
SMALL
GASTEIGER

@<TRIPOS>ATOM
      1  N         -6.5320   28.9130   21.4520 N.3     8  ARG8       -0.1245
      2  CA        -6.7450   28.2980   22.7670 C.3     8  ARG8        0.1563
      3  C         -6.7850   29.3230   23.8640 C.2     8  ARG8        0.2260
      4  O         -5.9950   30.2500   23.8040 O.2     8  ARG8       -0.2867
      5  CB        -5.6020   27.4120   23.1860 C.3     8  ARG8        0.0307
      6  CG        -5.1740   26.3060   22.2660 C.3     8  ARG8        0.0489
      7  CD        -4.3650   25.3680   23.1420 C.3     8  ARG8        0.2205
      8  NE        -3.6000   24.4600   22.3080 N.pl3   8  ARG8       -0.0865
      9  CZ        -3.8300   23.1480   22.3580 C.cat   8  ARG8        0.5346
     10  NH1       -4.8580   22.6470   23.0790 N.pl3   8  ARG8        0.1354
     11  NH2       -3.0100   22.3500   21.6590 N.pl3   8  ARG8        0.1354
     12  N         -4.7920   26.3450   30.5390 N.3    23  LEU23      -0.1245
     13  CA        -5.8970   26.3130   29.5800 C.3    23  LEU23       0.1561
     14  C         -7.2150   26.3980   30.3350 C.2    23  LEU23       0.2260
     15  O         -7.4570   25.6840   31.3020 O.2    23  LEU23      -0.2867
     16  CB        -5.8750   24.9240   28.9600 C.3    23  LEU23       0.0270
     17  CG        -6.0830   24.7240   27.5040 C.3    23  LEU23       0.0019
     18  CD1       -6.4450   23.2760   27.4110 C.3    23  LEU23       0.0001
     19  CD2       -7.1260   25.5800   26.8700 C.3    23  LEU23       0.0001
     20  N        -10.7090   25.3290   30.7900 N.3    25  ASP25      -0.1239
     21  CA       -11.2310   24.1160   30.1970 C.3    25  ASP25       0.1674
     22  C        -12.5960   23.7060   30.7430 C.2    25  ASP25       0.2266
     23  O        -12.7260   23.0610   31.7670 O.2    25  ASP25      -0.2867
     24  CB       -10.1280   23.0730   30.4080 C.3    25  ASP25       0.1410
     25  CG       -10.2630   21.8090   29.6390 C.2    25  ASP25       0.3668
     26  OD1      -11.3650   21.3800   29.3790 O.co2  25  ASP25      -0.2456
     27  OD2       -9.2450   21.2380   29.3090 O.co2  25  ASP25      -0.2456
     28  N        -14.3880   21.4780   29.7890 N.3    27  GLY27      -0.1210
     29  CA       -14.7140   20.0470   29.8540 C.3    27  GLY27       0.1956
     30  C        -14.1250   19.2950   31.0270 C.2    27  GLY27       0.2612
     31  O        -14.3640   18.1170   31.1930 O.2    27  GLY27      -0.2717
     32  N        -13.2830   19.9560   31.8250 N.am   28  ALA28      -0.1965
     33  CA       -12.5650   19.2610   32.8960 C.3    28  ALA28       0.1728
     34  C        -13.3440   19.5420   34.1270 C.2    28  ALA28       0.2616
     35  O        -13.7350   20.6740   34.3520 O.2    28  ALA28      -0.2715
     36  CB       -11.1720   19.8930   33.1070 C.3    28  ALA28       0.0334
     37  N        -13.6010   18.5330   34.9550 N.am   29  ASP29      -0.1957
     38  CA       -14.3420   18.8920   36.1800 C.3    29  ASP29       0.1840
     39  C        -13.4860   19.5120   37.2200 C.2    29  ASP29       0.2622
     40  O        -13.9480   20.3420   37.9800 O.2    29  ASP29      -0.2715
     41  CB       -15.0090   17.7080   36.8720 C.3    29  ASP29       0.1450
     42  CG       -15.9480   16.9550   35.9450 C.2    29  ASP29       0.3671
     43  OD1      -16.6650   17.5460   35.1260 O.co2  29  ASP29      -0.2456
     44  OD2      -15.9570   15.7380   36.0550 O.co2  29  ASP29      -0.2456
     45  N        -12.2190   19.0980   37.1940 N.am   30  ASP30      -0.1971
     46  CA       -11.1600   19.5470   38.1050 C.3    30  ASP30       0.1709
     47  C        -10.0080   20.1950   37.4000 C.2    30  ASP30       0.2293
     48  O         -9.9000   20.1640   36.1820 O.2    30  ASP30      -0.2864
     49  CB       -10.5870   18.3430   38.7610 C.3    30  ASP30       0.1436
     50  CG       -11.5230   17.9030   39.8400 C.2    30  ASP30       0.3671
     51  OD1      -11.9000   18.7190   40.6890 O.co2  30  ASP30      -0.2456
     52  OD2      -11.8590   16.7250   39.8450 O.co2  30  ASP30      -0.2456
     53  N         -6.0120   20.3730   36.8720 N.3    32  VAL32      -0.1245
     54  CA        -4.8140   19.5310   36.8950 C.3    32  VAL32       0.1561
     55  C         -3.6000   20.2240   36.2250 C.2    32  VAL32       0.2260
     56  O         -3.6260   20.7720   35.1200 O.2    32  VAL32      -0.2867
     57  CB        -5.1060   18.0890   36.3540 C.3    32  VAL32       0.0252
     58  CG1       -6.1050   17.9680   35.2130 C.3    32  VAL32       0.0019
     59  CG2       -3.7940   17.3430   36.0360 C.3    32  VAL32       0.0019
     60  N         -7.1340    9.7650   37.5400 N.3    47  ILE47      -0.1231
     61  CA        -8.2000   10.3800   36.7620 C.3    47  ILE47       0.1692
     62  C         -8.1330    9.8260   35.3540 C.2    47  ILE47       0.2593
     63  O         -7.0840    9.4100   34.8730 O.2    47  ILE47      -0.2718
     64  CB        -8.1400   11.9450   36.7500 C.3    47  ILE47       0.0266
     65  CG1       -7.0590   12.5470   35.8770 C.3    47  ILE47       0.0019
     66  CG2       -7.9780   12.5270   38.1450 C.3    47  ILE47       0.0020
     67  CD1       -7.3350   14.0210   35.5800 C.3    47  ILE47       0.0001
     68  N         -9.2910    9.8150   34.7180 N.am   48  GLY48      -0.1942
     69  CA        -9.3520    9.2710   33.3670 C.3    48  GLY48       0.2014
     70  C         -9.5490   10.3320   32.3120 C.2    48  GLY48       0.2639
     71  O        -10.3270   11.2400   32.4840 O.2    48  GLY48      -0.2714
     72  N         -8.8140   10.2160   31.2250 N.am   49  GLY49      -0.1939
     73  CA        -9.0450   11.1820   30.1700 C.3    49  GLY49       0.2014
     74  C         -9.2660   10.4620   28.8760 C.2    49  GLY49       0.2638
     75  O         -9.6030    9.2860   28.8120 O.2    49  GLY49      -0.2714
     76  N         -9.0160   11.1930   27.8020 N.am   50  ILE50      -0.1977
     77  CA        -9.0200   10.4750   26.5360 C.3    50  ILE50       0.1596
     78  C         -7.7040    9.7770   26.4970 C.2    50  ILE50       0.2287
     79  O         -6.7130   10.3840   26.8150 O.2    50  ILE50      -0.2864
     80  CB        -9.1460   11.5340   25.4580 C.3    50  ILE50       0.0276
     81  CG1      -10.4500   11.2230   24.7490 C.3    50  ILE50       0.0022
     82  CG2       -7.9850   11.7370   24.4630 C.3    50  ILE50       0.0022
     83  CD1      -10.9620   12.4520   24.0340 C.3    50  ILE50       0.0001
     84  N         -4.8910   19.0540   41.4320 N.3    75  LEU75      -0.1245
     85  CA        -4.3080   17.7400   41.1780 C.3    75  LEU75       0.1561
     86  C         -3.0080   18.0180   40.4550 C.2    75  LEU75       0.2260
     87  O         -3.0150   18.7730   39.4920 O.2    75  LEU75      -0.2867
     88  CB        -5.2670   16.9920   40.1990 C.3    75  LEU75       0.0270
     89  CG        -6.4880   16.1860   40.6720 C.3    75  LEU75       0.0019
     90  CD1       -7.0320   16.5770   42.0380 C.3    75  LEU75       0.0001
     91  CD2       -7.5560   16.1810   39.5870 C.3    75  LEU75       0.0001
     92  N          0.4140   15.7070   33.2230 N.3    79  THR79      -0.1204
     93  CA        -0.4540   16.1340   32.1390 C.3    79  THR79       0.1979
     94  C          0.4410   16.8200   31.1490 C.2    79  THR79       0.2460
     95  O          1.4240   17.4280   31.5090 O.2    79  THR79      -0.2732
     96  CB        -1.5700   17.0450   32.7220 C.3    79  THR79       0.1783
     97  OG1       -2.4010   17.6210   31.6970 O.3    79  THR79      -0.2211
     98  CG2       -0.9950   18.1110   33.6360 C.3    79  THR79       0.0376
     99  N          0.0920   16.7200   29.8880 N.am   80  PRO80      -0.2717
    100  CA         0.7930   17.5490   28.9350 C.3    80  PRO80       0.1535
    101  C          0.5010   19.0430   28.9660 C.2    80  PRO80       0.2598
    102  O          1.3030   19.7890   28.4290 O.2    80  PRO80      -0.2715
    103  CB         0.3740   16.8980   27.6210 C.3    80  PRO80       0.0310
    104  CG        -1.0030   16.2660   27.8500 C.3    80  PRO80       0.0237
    105  CD        -0.9190   15.8410   29.2990 C.3    80  PRO80       0.0939
    106  N         -0.6390   19.4640   29.5420 N.am   81  VAL81      -0.1978
    107  CA        -1.0340   20.8750   29.5500 C.3    81  VAL81       0.1596
    108  C         -1.5540   21.2030   30.9310 C.2    81  VAL81       0.2287
    109  O         -2.0600   20.3360   31.6330 O.2    81  VAL81      -0.2864
    110  CB        -2.1280   21.1960   28.5270 C.3    81  VAL81       0.0276
    111  CG1       -1.6560   21.0930   27.1000 C.3    81  VAL81       0.0022
    112  CG2       -3.2930   20.2510   28.6650 C.3    81  VAL81       0.0022
    113  N         -4.4570   22.5100   33.0810 N.3    83  ILE83      -0.1245
    114  CA        -5.8900   22.6400   32.8000 C.3    83  ILE83       0.1561
    115  C         -6.5540   23.2680   34.0050 C.2    83  ILE83       0.2260
    116  O         -6.4710   22.7270   35.1040 O.2    83  ILE83      -0.2867
    117  CB        -6.5120   21.2130   32.5930 C.3    83  ILE83       0.0252
    118  CG1       -5.9510   20.4220   31.4040 C.3    83  ILE83       0.0019
    119  CG2       -8.0370   21.2180   32.4330 C.3    83  ILE83       0.0019
    120  CD1       -6.2980   18.9300   31.5060 C.3    83  ILE83       0.0001
@<TRIPOS>BOND
     1     1     2    1
     2    11     9    1
     3     6     7    1
     4     6     5    1
     5     8     9    2
     6     8     7    1
     7     9    10    1
     8     2     5    1
     9     2     3    1
    10     4     3    2
    11    83    81    1
    12    82    80    1
    13    81    80    1
    14    80    77    1
    15    78    77    1
    16    78    79    2
    17    77    76    1
    18    19    17    1
    19   111   110    1
    20    18    17    1
    21    17    16    1
    22   103   104    1
    23   103   100    1
    24    76    74   am
    25   104   105    1
    26   102   101    2
    27   110   112    1
    28   110   107    1
    29    75    74    2
    30    74    73    1
    31   100   101    1
    32   100    99    1
    33    16    13    1
    34   101   106   am
    35   105    99    1
    36    27    25   ar
    37    26    25   ar
    38   106   107    1
    39   107   108    1
    40    13    14    1
    41    13    12    1
    42    25    24    1
    43    28    29    1
    44    29    30    1
    45    99    94   am
    46    73    72    1
    47    21    24    1
    48    21    22    1
    49    21    20    1
    50    14    15    2
    51    22    23    2
    52   108   109    2
    53    30    31    2
    54    30    32   am
    55    94    95    2
    56    94    93    1
    57    72    70   am
    58   118   120    1
    59   118   117    1
    60    97    96    1
    61    32    33    1
    62    93    96    1
    63    93    92    1
    64    70    71    2
    65    70    69    1
    66   119   117    1
    67   117   114    1
    68    96    98    1
    69   114   113    1
    70   114   115    1
    71    33    36    1
    72    33    34    1
    73    69    68    1
    74   115   116    2
    75    34    35    2
    76    34    37   am
    77    68    62   am
    78    63    62    2
    79    37    38    1
    80    56    55    2
    81    43    42   ar
    82    58    57    1
    83    62    61    1
    84    67    65    1
    85    65    64    1
    86    42    44   ar
    87    42    41    1
    88    59    57    1
    89    38    41    1
    90    38    39    1
    91    48    47    2
    92    55    54    1
    93    57    54    1
    94    64    61    1
    95    64    66    1
    96    61    60    1
    97    53    54    1
    98    45    39   am
    99    45    46    1
   100    39    40    2
   101    47    46    1
   102    46    49    1
   103    49    50    1
   104    87    86    2
   105    91    89    1
   106    50    52   ar
   107    50    51   ar
   108    88    89    1
   109    88    85    1
   110    86    85    1
   111    89    90    1
   112    85    84    1
