@<TRIPOS>MOLECULE
tmp/1qbuB00.pdb
 112 105 0 0 0
SMALL
GASTEIGER

@<TRIPOS>ATOM
      1  N        -21.5350   19.3380   34.1310 N.3     8  ARG8       -0.1245
      2  CA       -20.7660   19.1160   32.9050 C.3     8  ARG8        0.1563
      3  C        -21.5590   19.7500   31.8050 C.2     8  ARG8        0.2260
      4  O        -22.7300   19.4460   31.7400 O.2     8  ARG8       -0.2867
      5  CB       -20.7150   17.6250   32.5600 C.3     8  ARG8        0.0307
      6  CG       -19.8090   16.6880   33.3570 C.3     8  ARG8        0.0489
      7  CD       -19.7630   15.3310   32.6240 C.3     8  ARG8        0.2205
      8  NE       -18.8780   14.3310   33.2450 N.pl3   8  ARG8       -0.0865
      9  CZ       -17.5990   14.1670   32.8580 C.cat   8  ARG8        0.5346
     10  NH1      -17.0600   14.8980   31.8750 N.pl3   8  ARG8        0.1354
     11  NH2      -16.8460   13.2640   33.4880 N.pl3   8  ARG8        0.1354
     12  N        -19.9850   16.5100   25.3020 N.3    23  LEU23      -0.1245
     13  CA       -19.3490   17.4630   26.2110 C.3    23  LEU23       0.1561
     14  C        -18.7470   18.6150   25.4360 C.2    23  LEU23       0.2260
     15  O        -18.0070   18.4270   24.4900 O.2    23  LEU23      -0.2867
     16  CB       -18.2390   16.6920   26.9220 C.3    23  LEU23       0.0270
     17  CG       -17.5690   17.3190   28.1380 C.3    23  LEU23       0.0019
     18  CD1      -18.5250   17.4640   29.3200 C.3    23  LEU23       0.0001
     19  CD2      -16.3810   16.4520   28.5460 C.3    23  LEU23       0.0001
     20  N        -16.0760   21.0930   25.0190 N.3    25  ASP25      -0.1239
     21  CA       -14.7650   20.9180   25.6020 C.3    25  ASP25       0.1674
     22  C        -13.7470   21.9190   25.1140 C.2    25  ASP25       0.2266
     23  O        -12.9290   21.6260   24.2630 O.2    25  ASP25      -0.2867
     24  CB       -14.3480   19.5220   25.1890 C.3    25  ASP25       0.1410
     25  CG       -13.2900   18.9390   26.0660 C.2    25  ASP25       0.3668
     26  OD1      -12.7680   19.6340   26.9300 O.co2  25  ASP25      -0.2456
     27  OD2      -12.9940   17.7640   25.8810 O.co2  25  ASP25      -0.2456
     28  N        -11.0110   22.7800   25.9360 N.3    27  GLY27      -0.1210
     29  CA        -9.5980   22.4350   25.9450 C.3    27  GLY27       0.1956
     30  C         -9.1890   21.4600   24.8690 C.2    27  GLY27       0.2612
     31  O         -8.0320   21.0940   24.7320 O.2    27  GLY27      -0.2717
     32  N        -10.1760   20.9950   24.1140 N.am   28  ALA28      -0.1965
     33  CA        -9.8350   20.0400   23.0670 C.3    28  ALA28       0.1728
     34  C         -9.7510   20.7290   21.7310 C.2    28  ALA28       0.2616
     35  O        -10.5960   21.5190   21.3580 O.2    28  ALA28      -0.2715
     36  CB       -10.8910   18.9380   22.9710 C.3    28  ALA28       0.0334
     37  N         -8.7120   20.4060   20.9840 N.am   29  ASP29      -0.1957
     38  CA        -8.5680   21.0080   19.6600 C.3    29  ASP29       0.1840
     39  C         -9.5920   20.5200   18.6690 C.2    29  ASP29       0.2622
     40  O         -9.9650   21.2090   17.7300 O.2    29  ASP29      -0.2715
     41  CB        -7.2010   20.6690   19.0640 C.3    29  ASP29       0.1450
     42  CG        -6.0590   21.1450   19.9280 C.2    29  ASP29       0.3671
     43  OD1       -6.0180   22.3180   20.2830 O.co2  29  ASP29      -0.2456
     44  OD2       -5.1950   20.3420   20.2480 O.co2  29  ASP29      -0.2456
     45  N        -10.0020   19.2740   18.8940 N.am   30  ASP30      -0.1971
     46  CA       -10.7870   18.5300   17.9090 C.3    30  ASP30       0.1709
     47  C        -11.9810   17.8740   18.5600 C.2    30  ASP30       0.2293
     48  O        -12.1130   17.9020   19.7660 O.2    30  ASP30      -0.2864
     49  CB        -9.8950   17.4650   17.2680 C.3    30  ASP30       0.1436
     50  CG        -8.7970   18.0840   16.4250 C.2    30  ASP30       0.3671
     51  OD1       -9.0910   18.6290   15.3550 O.co2  30  ASP30      -0.2456
     52  OD2       -7.6460   18.0000   16.8360 O.co2  30  ASP30      -0.2456
     53  N        -14.1880   14.5310   19.0810 N.3    32  VAL32      -0.1245
     54  CA       -14.0430   13.0830   18.9760 C.3    32  VAL32       0.1561
     55  C        -15.2400   12.4580   19.6380 C.2    32  VAL32       0.2260
     56  O        -15.6350   12.7810   20.7520 O.2    32  VAL32      -0.2867
     57  CB       -12.7230   12.6080   19.6350 C.3    32  VAL32       0.0252
     58  CG1      -12.5840   13.1150   21.0650 C.3    32  VAL32       0.0019
     59  CG2      -12.5430   11.0820   19.5560 C.3    32  VAL32       0.0019
     60  N         -4.9240   10.3990   18.1640 N.3    47  ILE47      -0.1231
     61  CA        -4.9990   11.5930   18.9990 C.3    47  ILE47       0.1692
     62  C         -4.5660   11.2290   20.3740 C.2    47  ILE47       0.2593
     63  O         -4.4910   10.0710   20.7580 O.2    47  ILE47      -0.2718
     64  CB        -6.4110   12.2270   19.0610 C.3    47  ILE47       0.0266
     65  CG1       -7.5490   11.2390   19.3640 C.3    47  ILE47       0.0019
     66  CG2       -6.7260   13.0650   17.8150 C.3    47  ILE47       0.0020
     67  CD1       -8.6550   11.8720   20.1930 C.3    47  ILE47       0.0001
     68  N         -4.2820   12.2640   21.1180 N.am   48  GLY48      -0.1942
     69  CA        -3.8930   11.9340   22.4660 C.3    48  GLY48       0.2014
     70  C         -4.4460   12.9160   23.4370 C.2    48  GLY48       0.2639
     71  O         -5.0410   13.9220   23.0910 O.2    48  GLY48      -0.2714
     72  N         -4.2010   12.5810   24.6700 N.am   49  GLY49      -0.1939
     73  CA        -4.6740   13.3820   25.7660 C.3    49  GLY49       0.2014
     74  C         -3.9420   12.9040   26.9690 C.2    49  GLY49       0.2638
     75  O         -2.8940   12.2770   26.9040 O.2    49  GLY49      -0.2714
     76  N         -4.5430   13.1870   28.0990 N.am   50  ILE50      -0.1977
     77  CA        -4.0620   12.5500   29.3110 C.3    50  ILE50       0.1596
     78  C         -4.4050   11.0910   29.1830 C.2    50  ILE50       0.2287
     79  O         -5.4950   10.7420   28.7580 O.2    50  ILE50      -0.2864
     80  CB        -4.8190   13.2380   30.4430 C.3    50  ILE50       0.0276
     81  CG1       -4.0460   14.4760   30.8490 C.3    50  ILE50       0.0022
     82  CG2       -5.0990   12.3990   31.6880 C.3    50  ILE50       0.0022
     83  CD1       -4.9280   15.6290   31.2960 C.3    50  ILE50       0.0001
     84  N        -13.5500    7.0750   22.3410 N.3    80  THR80      -0.1204
     85  CA       -13.4740    8.0060   23.4550 C.3    80  THR80       0.1979
     86  C        -14.5070    7.5420   24.4490 C.2    80  THR80       0.2460
     87  O        -15.5560    7.0510   24.0510 O.2    80  THR80      -0.2732
     88  CB       -13.7450    9.4160   22.9370 C.3    80  THR80       0.1783
     89  OG1      -13.7510   10.3510   24.0170 O.3    80  THR80      -0.2211
     90  CG2      -15.0470    9.4800   22.1610 C.3    80  THR80       0.0376
     91  N        -14.1850    7.6710   25.7320 N.am   81  PRO81      -0.2717
     92  CA       -15.2200    7.5310   26.7520 C.3    81  PRO81       0.1535
     93  C        -16.3700    8.5360   26.6560 C.2    81  PRO81       0.2598
     94  O        -17.4820    8.2950   27.0920 O.2    81  PRO81      -0.2715
     95  CB       -14.4050    7.7110   28.0380 C.3    81  PRO81       0.0310
     96  CG       -13.0090    7.2360   27.6920 C.3    81  PRO81       0.0237
     97  CD       -12.8580    7.8090   26.2960 C.3    81  PRO81       0.0939
     98  N        -16.0830    9.7260   26.1440 N.am   82  VAL82      -0.1978
     99  CA       -17.1120   10.7460   26.2520 C.3    82  VAL82       0.1596
    100  C        -17.1860   11.3440   24.8760 C.2    82  VAL82       0.2287
    101  O        -16.1740   11.4190   24.2120 O.2    82  VAL82      -0.2864
    102  CB       -16.6760   11.7960   27.3080 C.3    82  VAL82       0.0276
    103  CG1      -17.7540   12.8430   27.5910 C.3    82  VAL82       0.0022
    104  CG2      -16.3590   11.1620   28.6570 C.3    82  VAL82       0.0022
    105  N        -17.0490   14.3900   22.6040 N.3    84  ILE84      -0.1245
    106  CA       -16.4880   15.7000   22.9120 C.3    84  ILE84       0.1561
    107  C        -16.6410   16.6170   21.7330 C.2    84  ILE84       0.2260
    108  O        -16.3030   16.2760   20.6160 O.2    84  ILE84      -0.2867
    109  CB       -15.0240   15.4360   23.2760 C.3    84  ILE84       0.0252
    110  CG1      -14.9120   14.9830   24.7260 C.3    84  ILE84       0.0019
    111  CG2      -14.0980   16.6180   23.1040 C.3    84  ILE84       0.0019
    112  CD1      -13.5310   14.4160   25.0520 C.3    84  ILE84       0.0001
@<TRIPOS>BOND
     1    51    50   ar
     2    50    52   ar
     3    50    49    1
     4    49    46    1
     5    40    39    2
     6    66    64    1
     7    46    47    1
     8    46    45    1
     9    60    61    1
    10    47    48    2
    11    39    45   am
    12    39    38    1
    13    54    53    1
    14    54    57    1
    15    54    55    1
    16    61    64    1
    17    61    62    1
    18    64    65    1
    19    41    38    1
    20    41    42    1
    21    65    67    1
    22    59    57    1
    23    57    58    1
    24    55    56    2
    25    38    37    1
    26    42    44   ar
    27    42    43   ar
    28    62    63    2
    29    62    68   am
    30   108   107    2
    31    37    34   am
    32    68    69    1
    33    35    34    2
    34    34    33    1
    35   107   106    1
    36    90    88    1
    37    84    85    1
    38    69    70    1
    39   105   106    1
    40   106   109    1
    41    88    85    1
    42    88    89    1
    43    36    33    1
    44    33    32    1
    45    71    70    2
    46   111   109    1
    47   109   110    1
    48    70    72   am
    49    85    86    1
    50    87    86    2
    51    32    30   am
    52   101   100    2
    53    23    22    2
    54    86    91   am
    55    15    14    2
    56    72    73    1
    57   110   112    1
    58    31    30    2
    59    30    29    1
    60   100    99    1
    61    20    21    1
    62    22    21    1
    63    24    21    1
    64    24    25    1
    65    12    13    1
    66    14    13    1
    67    91    97    1
    68    91    92    1
    69    73    74    1
    70    27    25   ar
    71    28    29    1
    72    25    26   ar
    73    98    99    1
    74    98    93   am
    75    13    16    1
    76    99   102    1
    77    97    96    1
    78    93    92    1
    79    93    94    2
    80    92    95    1
    81    75    74    2
    82    16    17    1
    83    74    76   am
    84   102   103    1
    85   102   104    1
    86    96    95    1
    87    76    77    1
    88    17    19    1
    89    17    18    1
    90    79    78    2
    91    78    77    1
    92    77    80    1
    93    80    81    1
    94    80    82    1
    95    81    83    1
    96     4     3    2
    97     3     2    1
    98    10     9    1
    99     5     2    1
   100     5     6    1
   101     7     8    1
   102     7     6    1
   103     9     8    2
   104     9    11    1
   105     2     1    1
