@<TRIPOS>MOLECULE
tmp/1qbvB00.pdb
 179 180 0 0 0
SMALL
GASTEIGER

@<TRIPOS>ATOM
      1  N         22.5860   -7.0230   18.4290 N.3    43  HIS43      -0.1241
      2  CA        22.4480   -8.4040   17.9870 C.3    43  HIS43       0.1621
      3  C         21.6550   -8.5390   16.6840 C.2    43  HIS43       0.2264
      4  O         21.6980   -9.5860   16.0340 O.2    43  HIS43      -0.2867
      5  CB        21.8570   -9.2900   19.1040 C.3    43  HIS43       0.0745
      6  CG        20.3700   -9.2720   19.1880 C.ar   43  HIS43       0.0817
      7  ND1       19.6950   -8.5530   20.1400 N.ar   43  HIS43      -0.2268
      8  CD2       19.4180   -9.8840   18.4340 C.ar   43  HIS43       0.1154
      9  CE1       18.3910   -8.6790   19.9540 C.ar   43  HIS43       0.1986
     10  NE2       18.2030   -9.4890   18.9230 N.ar   43  HIS43      -0.2212
     11  N         25.9140  -11.1520   15.5070 N.3    47  TYR47      -0.1241
     12  CA        25.7180  -12.2520   16.4300 C.3    47  TYR47       0.1605
     13  C         26.4390  -13.5010   15.9170 C.2    47  TYR47       0.2264
     14  O         25.8490  -14.3530   15.2380 O.2    47  TYR47      -0.2867
     15  CB        24.2510  -12.5560   16.5750 C.3    47  TYR47       0.0534
     16  CG        23.9820  -13.4230   17.7550 C.ar   47  TYR47      -0.0201
     17  CD1       24.4420  -13.0530   19.0300 C.ar   47  TYR47      -0.0009
     18  CD2       23.3780  -14.6620   17.6000 C.ar   47  TYR47      -0.0009
     19  CE1       24.3070  -13.9070   20.1270 C.ar   47  TYR47       0.0417
     20  CE2       23.2440  -15.5360   18.6870 C.ar   47  TYR47       0.0417
     21  CZ        23.7130  -15.1530   19.9450 C.ar   47  TYR47       0.1957
     22  OH        23.6370  -16.0320   20.9990 O.3    47  TYR47      -0.2866
     23  N         25.3710  -17.3040   15.5030 N.3    50  TRP50      -0.1241
     24  CA        24.4650  -17.6000   14.3980 C.3    50  TRP50       0.1605
     25  C         25.0410  -17.1780   13.0540 C.2    50  TRP50       0.2264
     26  O         24.3200  -17.1040   12.0630 O.2    50  TRP50      -0.2867
     27  CB        23.1290  -16.8990   14.6070 C.3    50  TRP50       0.0550
     28  CG        22.3680  -17.4420   15.7380 C.ar   50  TRP50       0.0003
     29  CD1       22.6650  -18.5580   16.4620 C.ar   50  TRP50       0.0946
     30  CD2       21.1650  -16.9040   16.3010 C.ar   50  TRP50       0.0152
     31  NE1       21.7270  -18.7490   17.4480 N.ar   50  TRP50      -0.2442
     32  CE2       20.7900  -17.7520   17.3690 C.ar   50  TRP50       0.0810
     33  CE3       20.3710  -15.7850   16.0130 C.ar   50  TRP50       0.0012
     34  CZ2       19.6550  -17.5170   18.1480 C.ar   50  TRP50       0.0191
     35  CZ3       19.2460  -15.5500   16.7960 C.ar   50  TRP50       0.0001
     36  CH2       18.9000  -16.4140   17.8490 C.ar   50  TRP50       0.0015
     37  N         24.3940  -10.8020   26.0860 N.3    96  LEU96      -0.1245
     38  CA        23.9530   -9.6270   25.2990 C.3    96  LEU96       0.1561
     39  C         23.9970   -8.3390   26.1240 C.2    96  LEU96       0.2260
     40  O         23.1910   -7.4330   25.9280 O.2    96  LEU96      -0.2867
     41  CB        22.5190   -9.8140   24.7410 C.3    96  LEU96       0.0270
     42  CG        22.2360  -10.8700   23.6690 C.3    96  LEU96       0.0019
     43  CD1       20.9190  -10.5540   22.9260 C.3    96  LEU96       0.0001
     44  CD2       23.3870  -10.9340   22.6990 C.3    96  LEU96       0.0001
     45  N         20.3860  -16.7960   33.0920 N.3   171  ILE171     -0.1245
     46  CA        21.2850  -15.8280   32.4500 C.3   171  ILE171      0.1561
     47  C         21.6680  -14.7240   33.4570 C.2   171  ILE171      0.2260
     48  O         20.8360  -14.2860   34.2620 O.2   171  ILE171     -0.2867
     49  CB        20.6200  -15.2060   31.1490 C.3   171  ILE171      0.0252
     50  CG1       20.4440  -16.3040   30.0990 C.3   171  ILE171      0.0019
     51  CG2       21.4940  -14.0990   30.5370 C.3   171  ILE171      0.0019
     52  CD1       19.3370  -16.0280   29.1430 C.3   171  ILE171      0.0001
     53  N          4.1110   -9.8850   25.0940 N.3   191  ASP191     -0.1225
     54  CA         5.5640   -9.9400   25.0670 C.3   191  ASP191      0.1805
     55  C          6.0010   -9.6010   23.6540 C.2   191  ASP191      0.2598
     56  O          5.1800   -9.5850   22.7320 O.2   191  ASP191     -0.2718
     57  CB         6.0310  -11.3550   25.4630 C.3   191  ASP191      0.1424
     58  CG         7.5500  -11.4730   25.6480 C.2   191  ASP191      0.3668
     59  OD1        8.2730  -10.4560   25.7850 O.co2 191  ASP191     -0.2456
     60  OD2        8.0320  -12.6280   25.6900 O.co2 191  ASP191     -0.2456
     61  N          7.2560   -9.1860   23.5160 N.am  192  ALA192     -0.1966
     62  CA         7.8930   -9.1140   22.2170 C.3   192  ALA192      0.1728
     63  C          8.1800  -10.5550   21.7910 C.2   192  ALA192      0.2616
     64  O          8.0060  -11.4930   22.5650 O.2   192  ALA192     -0.2715
     65  CB         9.2070   -8.3030   22.2980 C.3   192  ALA192      0.0334
     66  N          8.6080  -10.7250   20.5550 N.am  193  CYS193     -0.1954
     67  CA         8.9130  -12.0440   20.0480 C.3   193  CYS193      0.1843
     68  C          9.9480  -11.8820   18.9470 C.2   193  CYS193      0.2625
     69  O         10.4620  -10.7790   18.7280 O.2   193  CYS193     -0.2714
     70  CB         7.6300  -12.7030   19.5140 C.3   193  CYS193      0.0997
     71  SG         7.7240  -14.4970   19.4330 S.3   193  CYS193     -0.0797
     72  N         10.1820  -12.9510   18.1940 N.am  194  GLU194     -0.1963
     73  CA        11.1620  -12.9350   17.1170 C.3   194  GLU194      0.1733
     74  C         10.7080  -11.9230   16.0600 C.2   194  GLU194      0.2616
     75  O          9.5100  -11.7930   15.8030 O.2   194  GLU194     -0.2715
     76  CB        11.2620  -14.3380   16.5090 C.3   194  GLU194      0.0429
     77  CG        12.2450  -14.4980   15.3470 C.3   194  GLU194      0.1163
     78  CD        12.2890  -15.9200   14.8130 C.2   194  GLU194      0.3649
     79  OE1       11.2200  -16.4770   14.4850 O.co2 194  GLU194     -0.2457
     80  OE2       13.4000  -16.4810   14.7150 O.co2 194  GLU194     -0.2457
     81  N         11.6470  -11.1120   15.5750 N.am  195  GLY195     -0.1955
     82  CA        11.3220  -10.1000   14.5810 C.3   195  GLY195      0.1869
     83  C         11.0560   -8.7360   15.1890 C.2   195  GLY195      0.2309
     84  O         11.0750   -7.7390   14.4700 O.2   195  GLY195     -0.2863
     85  N         12.9120   -7.7060   17.9800 N.3   197  SER197     -0.1217
     86  CA        14.2900   -7.3150   18.3030 C.3   197  SER197      0.1889
     87  C         14.6440   -5.9210   17.8060 C.2   197  SER197      0.2288
     88  O         14.4050   -5.6080   16.6480 O.2   197  SER197     -0.2866
     89  CB        15.2820   -8.3100   17.6600 C.3   197  SER197      0.2089
     90  OG        15.6050   -9.3700   18.5310 O.3   197  SER197     -0.2183
     91  N         14.2280   -3.6720   22.6840 N.3   217  VAL217     -0.1231
     92  CA        13.9340   -5.1140   22.7230 C.3   217  VAL217      0.1692
     93  C         15.2210   -5.9330   22.5000 C.2   217  VAL217      0.2593
     94  O         15.8540   -5.8660   21.4270 O.2   217  VAL217     -0.2718
     95  CB        12.8790   -5.5190   21.6410 C.3   217  VAL217      0.0266
     96  CG1       12.5130   -7.0130   21.7770 C.3   217  VAL217      0.0020
     97  CG2       11.6200   -4.6440   21.7560 C.3   217  VAL217      0.0020
     98  N         15.6150   -6.6940   23.5220 N.am  218  SER218     -0.1938
     99  CA        16.9100   -7.3590   23.4900 C.3   218  SER218      0.2055
    100  C         16.7750   -8.8730   23.4270 C.2   218  SER218      0.2643
    101  O         17.1670   -9.4800   22.4290 O.2   218  SER218     -0.2714
    102  CB        17.7590   -6.9600   24.6950 C.3   218  SER218      0.2130
    103  OG        19.0580   -7.4930   24.5670 O.3   218  SER218     -0.2179
    104  N         16.2600   -9.4890   24.4840 N.am  219  TRP219     -0.1959
    105  CA        16.1980  -10.9410   24.5270 C.3   219  TRP219      0.1771
    106  C         15.1100  -11.4640   25.4270 C.2   219  TRP219      0.2620
    107  O         14.5570  -10.7380   26.2670 O.2   219  TRP219     -0.2715
    108  CB        17.5650  -11.5450   24.9260 C.3   219  TRP219      0.0590
    109  CG        18.0550  -11.1980   26.3040 C.ar  219  TRP219      0.0006
    110  CD1       18.8760  -10.1560   26.6400 C.ar  219  TRP219      0.0946
    111  CD2       17.8510  -11.9490   27.5150 C.ar  219  TRP219      0.0152
    112  NE1       19.2020  -10.2070   27.9740 N.ar  219  TRP219     -0.2442
    113  CE2       18.5980  -11.3030   28.5390 C.ar  219  TRP219      0.0810
    114  CE3       17.1170  -13.1030   27.8370 C.ar  219  TRP219      0.0012
    115  CZ2       18.6340  -11.7780   29.8660 C.ar  219  TRP219      0.0191
    116  CZ3       17.1460  -13.5690   29.1550 C.ar  219  TRP219      0.0001
    117  CH2       17.9030  -12.9030   30.1520 C.ar  219  TRP219      0.0015
    118  N         14.7230  -12.7050   25.1590 N.am  220  GLY220     -0.1940
    119  CA        13.7980  -13.3880   26.0350 C.3   220  GLY220      0.2014
    120  C         13.9600  -14.8780   25.8350 C.2   220  GLY220      0.2639
    121  O         14.6600  -15.3330   24.9270 O.2   220  GLY220     -0.2714
    122  N         13.3370  -15.6440   26.7030 N.am  221  GLU221     -0.1963
    123  CA        13.3750  -17.0840   26.5870 C.3   221  GLU221      0.1733
    124  C         11.9720  -17.5770   26.2560 C.2   221  GLU221      0.2617
    125  O         11.0730  -17.5610   27.1000 O.2   221  GLU221     -0.2715
    126  CB        13.9010  -17.6750   27.8920 C.3   221  GLU221      0.0429
    127  CG        15.2610  -17.1050   28.2840 C.3   221  GLU221      0.1163
    128  CD        15.6010  -17.3230   29.7470 C.2   221  GLU221      0.3649
    129  OE1       14.9010  -16.7790   30.6330 O.co2 221  GLU221     -0.2457
    130  OE2       16.6460  -17.9540   29.9960 O.co2 221  GLU221     -0.2457
    131  N         11.7550  -17.8530   24.9750 N.am  222  GLY222     -0.1940
    132  CA        10.4040  -18.0440   24.4840 C.3   222  GLY222      0.2014
    133  C          9.7140  -16.7000   24.3080 C.2   222  GLY222      0.2639
    134  O         10.3490  -15.6550   24.4360 O.2   222  GLY222     -0.2714
    135  N          8.4240  -16.7150   24.0050 N.am  223  CYS223     -0.1967
    136  CA         7.6630  -15.4800   23.8480 C.3   223  CYS223      0.1712
    137  C          6.3890  -15.6610   24.6280 C.2   223  CYS223      0.2296
    138  O          5.6650  -16.6330   24.4130 O.2   223  CYS223     -0.2864
    139  CB         7.3340  -15.2190   22.3790 C.3   223  CYS223      0.0983
    140  SG         8.7700  -15.2030   21.3500 S.3   223  CYS223     -0.0798
    141  N         10.2300  -13.2920   31.3370 N.3   229  TYR229     -0.1227
    142  CA        10.0630  -11.8670   31.0760 C.3   229  TYR229      0.1736
    143  C         10.8930  -11.4260   29.8710 C.2   229  TYR229      0.2596
    144  O         11.8320  -12.1210   29.4590 O.2   229  TYR229     -0.2718
    145  CB        10.4620  -11.0520   32.3100 C.3   229  TYR229      0.0548
    146  CG         9.6340  -11.3630   33.5280 C.ar  229  TYR229     -0.0200
    147  CD1       10.0690  -12.2960   34.4680 C.ar  229  TYR229     -0.0009
    148  CD2        8.3580  -10.8090   33.6820 C.ar  229  TYR229     -0.0009
    149  CE1        9.2470  -12.6850   35.5110 C.ar  229  TYR229      0.0417
    150  CE2        7.5300  -11.2010   34.7170 C.ar  229  TYR229      0.0417
    151  CZ         7.9760  -12.1510   35.6180 C.ar  229  TYR229      0.1957
    152  OH         7.0770  -12.6450   36.5450 O.3   229  TYR229     -0.2866
    153  N         10.4750  -10.3190   29.2540 N.am  230  GLY230     -0.1942
    154  CA        11.2620   -9.7210   28.1940 C.3   230  GLY230      0.2014
    155  C         12.3480   -8.8630   28.8060 C.2   230  GLY230      0.2639
    156  O         12.1620   -8.3310   29.8930 O.2   230  GLY230     -0.2714
    157  N         13.5350   -8.8990   28.2130 N.am  231  PHE231     -0.1959
    158  CA        14.6510   -8.1130   28.7050 C.3   231  PHE231      0.1771
    159  C         14.9900   -7.0670   27.6740 C.2   231  PHE231      0.2619
    160  O         14.9790   -7.3310   26.4630 O.2   231  PHE231     -0.2715
    161  CB        15.8800   -9.0010   28.9870 C.3   231  PHE231      0.0574
    162  CG        15.7630   -9.8000   30.2610 C.ar  231  PHE231     -0.0200
    163  CD1       14.9650  -10.9500   30.3120 C.ar  231  PHE231     -0.0042
    164  CD2       16.3460   -9.3400   31.4360 C.ar  231  PHE231     -0.0042
    165  CE1       14.7450  -11.6270   31.5310 C.ar  231  PHE231     -0.0003
    166  CE2       16.1340   -9.9960   32.6470 C.ar  231  PHE231     -0.0003
    167  CZ        15.3320  -11.1420   32.6950 C.ar  231  PHE231     -0.0000
    168  N         15.3280   -5.8830   28.1670 N.am  232  TYR232     -0.1974
    169  CA        15.4830   -4.7190   27.3170 C.3   232  TYR232      0.1639
    170  C         16.7980   -4.0370   27.6810 C.2   232  TYR232      0.2290
    171  O         17.1580   -3.9440   28.8630 O.2   232  TYR232     -0.2864
    172  CB        14.2980   -3.7570   27.5530 C.3   232  TYR232      0.0560
    173  CG        12.9340   -4.3290   27.2190 C.ar  232  TYR232     -0.0198
    174  CD1       12.2290   -5.1050   28.1440 C.ar  232  TYR232     -0.0009
    175  CD2       12.3610   -4.1160   25.9680 C.ar  232  TYR232     -0.0009
    176  CE1       11.0110   -5.6660   27.8240 C.ar  232  TYR232      0.0417
    177  CE2       11.1570   -4.6590   25.6430 C.ar  232  TYR232      0.0417
    178  CZ        10.4910   -5.4520   26.5630 C.ar  232  TYR232      0.1957
    179  OH         9.3650   -6.1350   26.1690 O.3   232  TYR232     -0.2866
@<TRIPOS>BOND
     1    26    25    2
     2    25    24    1
     3    24    27    1
     4    24    23    1
     5    84    83    2
     6    79    78   ar
     7    82    83    1
     8    82    81    1
     9    27    28    1
    10    80    78   ar
    11    78    77    1
    12    14    13    2
    13    77    76    1
    14    11    12    1
    15    81    74   am
    16    28    30   ar
    17    28    29   ar
    18    75    74    2
    19    13    12    1
    20    33    30   ar
    21    33    35   ar
    22     4     3    2
    23    74    73    1
    24    30    32   ar
    25    12    15    1
    26    29    31   ar
    27    76    73    1
    28    15    16    1
    29    88    87    2
    30     3     2    1
    31    35    36   ar
    32    73    72    1
    33    32    31   ar
    34    32    34   ar
    35    18    16   ar
    36    18    20   ar
    37    89    86    1
    38    89    90    1
    39    16    17   ar
    40    87    86    1
    41    36    34   ar
    42    85    86    1
    43     2     1    1
    44     2     5    1
    45    72    68   am
    46     8    10   ar
    47     8     6   ar
    48    20    21   ar
    49    69    68    2
    50    10     9   ar
    51    68    67    1
    52    17    19   ar
    53     5     6    1
    54     6     7   ar
    55    71    70    1
    56    71   140    1
    57    70    67    1
    58    21    19   ar
    59    21    22    1
    60     9     7   ar
    61    67    66    1
    62    66    63   am
    63   140   139    1
    64    94    93    2
    65    95    97    1
    66    95    96    1
    67    95    92    1
    68    63    62    1
    69    63    64    2
    70    62    65    1
    71    62    61    1
    72   139   136    1
    73   101   100    2
    74    93    92    1
    75    93    98   am
    76    91    92    1
    77    44    42    1
    78    56    55    2
    79    43    42    1
    80   100    99    1
    81   100   104   am
    82    99    98    1
    83    99   102    1
    84    61    55   am
    85    55    54    1
    86    42    41    1
    87   136   135    1
    88   136   137    1
    89   135   133   am
    90   133   134    2
    91   133   132    1
    92   138   137    2
    93   104   105    1
    94   132   131    1
    95   105   108    1
    96   105   106    1
    97   103   102    1
    98    41    38    1
    99   108   109    1
   100   121   120    2
   101   131   124   am
   102    54    53    1
   103    54    57    1
   104   118   106   am
   105   118   119    1
   106    38    37    1
   107    38    39    1
   108   106   107    2
   109    57    58    1
   110   177   175   ar
   111   177   178   ar
   112    58    60   ar
   113    58    59   ar
   114   120   119    1
   115   120   122   am
   116    40    39    2
   117   175   173   ar
   118   179   178    1
   119   124   123    1
   120   124   125    2
   121   109   110   ar
   122   109   111   ar
   123   160   159    2
   124   178   176   ar
   125   123   122    1
   126   123   126    1
   127   110   112   ar
   128   173   172    1
   129   173   174   ar
   130   169   172    1
   131   169   170    1
   132   169   168    1
   133   111   114   ar
   134   111   113   ar
   135   159   168   am
   136   159   158    1
   137   170   171    2
   138   176   174   ar
   139   114   116   ar
   140   126   127    1
   141   112   113   ar
   142   154   155    1
   143   154   153    1
   144   157   158    1
   145   157   155   am
   146   127   128    1
   147   113   115   ar
   148   158   161    1
   149   155   156    2
   150   161   162    1
   151    52    50    1
   152   116   117   ar
   153   153   143   am
   154   144   143    2
   155   128   130   ar
   156   128   129   ar
   157   115   117   ar
   158   143   142    1
   159    50    49    1
   160   162   163   ar
   161   162   164   ar
   162   163   165   ar
   163    51    49    1
   164   142   141    1
   165   142   145    1
   166    49    46    1
   167   164   166   ar
   168   165   167   ar
   169   145   146    1
   170    46    45    1
   171    46    47    1
   172   166   167   ar
   173    47    48    2
   174   146   148   ar
   175   146   147   ar
   176   148   150   ar
   177   147   149   ar
   178   150   151   ar
   179   149   151   ar
   180   151   152    1
