@<TRIPOS>MOLECULE
tmp/1qcaA00.pdb
 175 167 0 0 0
SMALL
GASTEIGER

@<TRIPOS>ATOM
      1  N          7.6170   21.0460   18.3200 N.3    86  CYS86      -0.1235
      2  CA         6.3760   21.4220   17.6380 C.3    86  CYS86       0.1677
      3  C          5.3600   20.8450   18.6470 C.2    86  CYS86       0.2270
      4  O          5.4360   19.6250   18.8340 O.2    86  CYS86      -0.2867
      5  CB         6.3120   20.9680   16.2070 C.3    86  CYS86       0.0956
      6  SG         4.7020   21.3140   15.4590 S.3    86  CYS86      -0.0801
      7  N          1.2390   20.7170   20.5460 N.3    88  THR88      -0.1218
      8  CA        -0.1880   20.9700   20.3890 C.3    88  THR88       0.1862
      9  C         -0.7020   21.9520   21.4590 C.2    88  THR88       0.2287
     10  O         -0.2080   22.0160   22.5980 O.2    88  THR88      -0.2866
     11  CB        -1.1140   19.7220   20.2970 C.3    88  THR88       0.1770
     12  OG1       -0.9540   19.1500   21.6200 O.3    88  THR88      -0.2211
     13  CG2       -0.6600   18.7310   19.2050 C.3    88  THR88       0.0375
     14  N         -7.5490   21.6630   18.1970 N.3    97  PHE97      -0.1241
     15  CA        -6.1390   21.9580   18.5160 C.3    97  PHE97       0.1605
     16  C         -5.4470   22.5130   17.2640 C.2    97  PHE97       0.2264
     17  O         -5.9290   22.3990   16.1210 O.2    97  PHE97      -0.2867
     18  CB        -5.3960   20.7040   19.0470 C.3    97  PHE97       0.0534
     19  CG        -5.1260   19.6390   18.0100 C.ar   97  PHE97      -0.0203
     20  CD1       -6.0650   18.6840   17.5850 C.ar   97  PHE97      -0.0042
     21  CD2       -3.8980   19.6810   17.3190 C.ar   97  PHE97      -0.0042
     22  CE1       -5.7950   17.7660   16.5720 C.ar   97  PHE97      -0.0003
     23  CE2       -3.5820   18.8230   16.2820 C.ar   97  PHE97      -0.0003
     24  CZ        -4.5220   17.7990   15.9500 C.ar   97  PHE97      -0.0000
     25  N         -1.0700   23.1960   16.0580 N.3    99  ALA99      -0.1231
     26  CA         0.2980   22.8140   16.2980 C.3    99  ALA99       0.1694
     27  C          1.1880   24.0690   16.1540 C.2    99  ALA99       0.2592
     28  O          1.0930   24.7620   15.1340 O.2    99  ALA99      -0.2718
     29  CB         0.8130   21.7650   15.3260 C.3    99  ALA99       0.0304
     30  N          2.0560   24.3650   17.1450 N.am  100  LEU100     -0.1966
     31  CA         2.9250   25.5260   17.1080 C.3   100  LEU100      0.1728
     32  C          4.3530   25.1050   17.3960 C.2   100  LEU100      0.2616
     33  O          4.6230   24.0440   17.9630 O.2   100  LEU100     -0.2715
     34  CB         2.5120   26.5660   18.1630 C.3   100  LEU100      0.0311
     35  CG         1.1510   27.2410   18.0920 C.3   100  LEU100      0.0022
     36  CD1        1.1310   28.1970   19.3120 C.3   100  LEU100      0.0001
     37  CD2        1.0110   27.9810   16.7690 C.3   100  LEU100      0.0001
     38  N          5.2920   25.8730   16.9630 N.am  101  SER101     -0.1950
     39  CA         6.6820   25.5110   17.2910 C.3   101  SER101      0.1924
     40  C          7.3440   26.7900   17.7580 C.2   101  SER101      0.2314
     41  O          6.8980   27.8840   17.4820 O.2   101  SER101     -0.2863
     42  CB         7.4020   24.8580   16.1750 C.3   101  SER101      0.2116
     43  OG         7.5100   25.7760   15.1560 O.3   101  SER101     -0.2180
     44  N         -4.8030   24.7730   11.7820 N.3   128  LEU128     -0.1231
     45  CA        -4.0440   23.5860   12.1970 C.3   128  LEU128      0.1693
     46  C         -2.5540   23.9910   12.3680 C.2   128  LEU128      0.2592
     47  O         -1.8690   23.6710   13.3790 O.2   128  LEU128     -0.2718
     48  CB        -4.4490   22.3650   11.3490 C.3   128  LEU128      0.0284
     49  CG        -3.5040   21.1790   11.6920 C.3   128  LEU128      0.0019
     50  CD1       -3.5500   20.6180   13.1360 C.3   128  LEU128      0.0001
     51  CD2       -3.7540   20.1120   10.6640 C.3   128  LEU128      0.0001
     52  N         -1.9670   24.7070   11.4700 N.am  129  PHE129     -0.1976
     53  CA        -0.5980   25.2390   11.5260 C.3   129  PHE129      0.1639
     54  C         -0.6140   26.7960   11.3190 C.2   129  PHE129      0.2290
     55  O         -0.3870   27.3440   10.2140 O.2   129  PHE129     -0.2864
     56  CB         0.2340   24.5320   10.4890 C.3   129  PHE129      0.0560
     57  CG         0.0760   23.0430   10.4670 C.ar  129  PHE129     -0.0200
     58  CD1        0.7150   22.2690   11.4140 C.ar  129  PHE129     -0.0042
     59  CD2       -0.6490   22.3520    9.4850 C.ar  129  PHE129     -0.0042
     60  CE1        0.7210   20.8900   11.4790 C.ar  129  PHE129     -0.0003
     61  CE2       -0.7290   20.9520    9.5480 C.ar  129  PHE129     -0.0003
     62  CZ        -0.0700   20.1910   10.5160 C.ar  129  PHE129     -0.0000
     63  N          1.4150   29.0770   11.8970 N.3   131  GLN131     -0.1231
     64  CA         2.6960   29.5780   11.4760 C.3   131  GLN131      0.1698
     65  C          3.0260   29.1760   10.0500 C.2   131  GLN131      0.2589
     66  O          3.9780   29.8420    9.5410 O.2   131  GLN131     -0.2718
     67  CB         3.8440   29.1800   12.4080 C.3   131  GLN131      0.0381
     68  CG         3.8560   29.8630   13.7490 C.3   131  GLN131      0.0905
     69  CD         4.5500   28.9590   14.7500 C.2   131  GLN131      0.2608
     70  OE1        4.1660   27.8220   14.7840 O.2   131  GLN131     -0.2717
     71  NE2        5.4890   29.3790   15.5590 N.am  131  GLN131     -0.0878
     72  N          2.3770   28.1830    9.4690 N.am  132  GLY132     -0.2014
     73  CA         2.7240   27.8680    8.0840 C.3   132  GLY132      0.1506
     74  C          3.8980   27.0380    7.6720 C.3   132  GLY132      0.2054
     75  O          3.7880   25.8150    7.9710 O.3   132  GLY132     -0.2184
     76  N         10.0580   25.3690    9.1910 N.3   133  PRO133     -0.2102
     77  CA        11.2800   24.5970    8.8760 C.3   133  PRO133      0.1504
     78  C         11.0720   23.1630    9.4310 C.2   133  PRO133      0.2572
     79  O         10.2240   22.8960   10.2860 O.2   133  PRO133     -0.2718
     80  CB        12.5070   25.4000    9.2980 C.3   133  PRO133      0.0282
     81  CG        11.9690   26.5730   10.0150 C.3   133  PRO133      0.0208
     82  CD        10.5040   26.7230    9.6770 C.3   133  PRO133      0.0893
     83  N         11.9020   22.3280    8.8270 N.am  134  GLU134     -0.2033
     84  CA        11.9190   20.9320    9.0710 C.3   134  GLU134      0.1288
     85  C         12.6510   20.3780   10.2550 C.3   134  GLU134      0.2036
     86  O         12.4560   19.1740   10.4120 O.3   134  GLU134     -0.2185
     87  CB        12.6640   20.2490    7.8930 C.3   134  GLU134      0.0362
     88  CG        12.2930   20.6900    6.4840 C.3   134  GLU134      0.1159
     89  CD        13.5750   20.8430    5.6740 C.2   134  GLU134      0.3649
     90  OE1       14.1330   21.9490    5.8020 O.co2 134  GLU134     -0.2457
     91  OE2       13.8120   19.7550    5.0580 O.co2 134  GLU134     -0.2457
     92  N         12.3460   19.5060   13.5520 N.3   136  HIS136     -0.1241
     93  CA        11.3700   19.4780   14.6120 C.3   136  HIS136      0.1621
     94  C         11.2880   18.1400   15.3300 C.2   136  HIS136      0.2264
     95  O         11.7890   17.1180   14.9260 O.2   136  HIS136     -0.2867
     96  CB         9.9420   19.7490   14.0230 C.3   136  HIS136      0.0745
     97  CG         9.7550   21.2510   13.9580 C.ar  136  HIS136      0.0817
     98  ND1        9.4850   22.0950   15.0590 N.ar  136  HIS136     -0.2268
     99  CD2        9.8060   22.0190   12.8610 C.ar  136  HIS136      0.1154
    100  CE1        9.4430   23.3160   14.5920 C.ar  136  HIS136      0.1986
    101  NE2        9.6370   23.3340   13.2780 N.ar  136  HIS136     -0.2212
    102  N          7.9350   16.3350   17.6330 N.3   138  PHE138     -0.1227
    103  CA         6.5120   16.4540   17.8660 C.3   138  PHE138      0.1736
    104  C          6.1700   16.0220   19.2810 C.2   138  PHE138      0.2595
    105  O          6.5480   14.9630   19.7640 O.2   138  PHE138     -0.2718
    106  CB         5.6170   15.7830   16.8460 C.3   138  PHE138      0.0547
    107  CG         5.9690   16.3610   15.4730 C.ar  138  PHE138     -0.0202
    108  CD1        5.3170   17.4940   14.9920 C.ar  138  PHE138     -0.0042
    109  CD2        6.9460   15.7180   14.7150 C.ar  138  PHE138     -0.0042
    110  CE1        5.6720   17.9550   13.7270 C.ar  138  PHE138     -0.0003
    111  CE2        7.2900   16.2300   13.4480 C.ar  138  PHE138     -0.0003
    112  CZ         6.6560   17.3580   12.9270 C.ar  138  PHE138     -0.0000
    113  N          5.4840   16.9510   19.9440 N.am  139  ILE139     -0.1966
    114  CA         5.0410   16.7640   21.3120 C.3   139  ILE139      0.1727
    115  C          3.5280   16.9770   21.4010 C.2   139  ILE139      0.2616
    116  O          3.1040   18.0000   20.8810 O.2   139  ILE139     -0.2715
    117  CB         5.7350   17.6860   22.3580 C.3   139  ILE139      0.0290
    118  CG1        7.2130   17.3510   22.4430 C.3   139  ILE139      0.0022
    119  CG2        5.0190   17.4260   23.7030 C.3   139  ILE139      0.0023
    120  CD1        8.0650   18.5680   22.9210 C.3   139  ILE139      0.0001
    121  N          2.8190   16.0460   22.0050 N.am  140  SER140     -0.1950
    122  CA         1.3770   16.2120   22.1430 C.3   140  SER140      0.1924
    123  C          0.9440   15.9610   23.5880 C.2   140  SER140      0.2314
    124  O          1.5810   15.1410   24.2530 O.2   140  SER140     -0.2863
    125  CB         0.6390   15.1640   21.2700 C.3   140  SER140      0.2116
    126  OG        -0.7270   15.4990   21.4880 O.3   140  SER140     -0.2180
    127  N         -0.4660    4.4180   24.3900 N.3   150  PHE150     -0.1298
    128  CA        -0.9080    5.2590   23.3210 C.3   150  PHE150      0.1290
    129  C         -0.1650    4.7890   22.0640 C.3   150  PHE150      0.2013
    130  O          1.0530    4.6870   22.1940 O.3   150  PHE150     -0.2188
    131  CB        -0.6690    6.7470   23.6400 C.3   150  PHE150      0.0480
    132  CG        -1.2090    7.5880   22.5180 C.ar  150  PHE150     -0.0206
    133  CD1       -2.5500    7.9780   22.5200 C.ar  150  PHE150     -0.0042
    134  CD2       -0.3980    7.9790   21.4620 C.ar  150  PHE150     -0.0042
    135  CE1       -3.1150    8.7880   21.5380 C.ar  150  PHE150     -0.0003
    136  CE2       -0.8940    8.8140   20.4510 C.ar  150  PHE150     -0.0003
    137  CZ        -2.2730    9.1580   20.5020 C.ar  150  PHE150     -0.0000
    138  N          0.0430    5.5130   17.6190 N.3   152  LEU152     -0.1245
    139  CA        -0.4620    6.1190   16.3800 C.3   152  LEU152      0.1561
    140  C         -0.3980    5.0740   15.2340 C.2   152  LEU152      0.2260
    141  O          0.6990    4.4920   15.0710 O.2   152  LEU152     -0.2867
    142  CB         0.3900    7.2640   15.8640 C.3   152  LEU152      0.0270
    143  CG         0.0620    8.4660   16.7430 C.3   152  LEU152      0.0019
    144  CD1        1.2580    9.3610   16.7320 C.3   152  LEU152      0.0001
    145  CD2       -1.1520    9.1930   16.2190 C.3   152  LEU152      0.0001
    146  N         10.0840    8.7810    7.7970 N.3   160  PHE160     -0.1298
    147  CA         9.5700    9.7070    8.8480 C.3   160  PHE160      0.1290
    148  C         10.3560    9.3840   10.1010 C.3   160  PHE160      0.2013
    149  O          9.9100    8.4190   10.7370 O.3   160  PHE160     -0.2188
    150  CB         8.0480    9.5470    9.0590 C.3   160  PHE160      0.0480
    151  CG         7.6340   10.4270   10.2020 C.ar  160  PHE160     -0.0206
    152  CD1        7.5220   11.8240   10.1110 C.ar  160  PHE160     -0.0042
    153  CD2        7.4660    9.9120   11.4710 C.ar  160  PHE160     -0.0042
    154  CE1        7.2180   12.6250   11.2380 C.ar  160  PHE160     -0.0003
    155  CE2        7.1460   10.6850   12.5700 C.ar  160  PHE160     -0.0003
    156  CZ         7.0130   12.0600   12.4880 C.ar  160  PHE160     -0.0000
    157  N         11.3980   11.6870   12.6770 N.3   162  ALA162     -0.1245
    158  CA        11.3130   12.5400   13.8880 C.3   162  ALA162      0.1562
    159  C         10.4550   11.8030   14.9250 C.2   162  ALA162      0.2260
    160  O          9.4300   11.2270   14.5320 O.2   162  ALA162     -0.2867
    161  CB        10.6330   13.8380   13.5010 C.3   162  ALA162      0.0290
    162  N          7.8350   11.1430   17.8920 N.3   164  VAL164     -0.1245
    163  CA         6.5360   11.6530   18.2840 C.3   164  VAL164      0.1561
    164  C          6.3860   11.2570   19.7560 C.2   164  VAL164      0.2260
    165  O          6.5290   10.0810   20.1040 O.2   164  VAL164     -0.2867
    166  CB         5.4130   11.1510   17.4010 C.3   164  VAL164      0.0252
    167  CG1        4.0950   11.7410   17.8920 C.3   164  VAL164      0.0019
    168  CG2        5.7560   11.4110   15.9350 C.3   164  VAL164      0.0019
    169  N          3.9010   11.5640   23.2180 N.3   166  THR166     -0.1218
    170  CA         2.5330   11.9480   23.6950 C.3   166  THR166      0.1862
    171  C          2.4830   11.8330   25.2220 C.2   166  THR166      0.2287
    172  O          3.0090   10.8250   25.7330 O.2   166  THR166     -0.2866
    173  CB         1.4090   11.1310   23.0210 C.3   166  THR166      0.1770
    174  OG1        1.6680   11.2230   21.5870 O.3   166  THR166     -0.2211
    175  CG2        0.0520   11.5540   23.5310 C.3   166  THR166      0.0375
@<TRIPOS>BOND
     1    91    89   ar
     2    89    90   ar
     3    89    88    1
     4    88    87    1
     5    74    75    1
     6    74    73    1
     7   146   147    1
     8    87    84    1
     9    73    72    1
    10    83    84    1
    11    83    78   am
    12   147   150    1
    13   147   148    1
    14    77    76    1
    15    77    80    1
    16    77    78    1
    17   150   151    1
    18    84    85    1
    19    76    82    1
    20    80    81    1
    21    78    79    2
    22    72    65   am
    23    59    61   ar
    24    59    57   ar
    25    66    65    2
    26    61    62   ar
    27    82    81    1
    28    65    64    1
    29   148   149    1
    30   152   151   ar
    31   152   154   ar
    32   151   153   ar
    33    55    54    2
    34    85    86    1
    35    57    56    1
    36    57    58   ar
    37    56    53    1
    38    62    60   ar
    39    51    49    1
    40   154   156   ar
    41    54    53    1
    42    48    49    1
    43    48    45    1
    44    58    60   ar
    45    52    53    1
    46    52    46   am
    47   153   155   ar
    48    64    63    1
    49    64    67    1
    50    49    50    1
    51    44    45    1
    52    45    46    1
    53    46    47    2
    54    67    68    1
    55   156   155   ar
    56   157   158    1
    57    99   101   ar
    58    99    97   ar
    59   112   111   ar
    60   112   110   ar
    61   101   100   ar
    62   111   109   ar
    63   161   158    1
    64    92    93    1
    65   110   108   ar
    66    68    69    1
    67   158   159    1
    68    97    96    1
    69    97    98   ar
    70    96    93    1
    71   160   159    2
    72   100    98   ar
    73    93    94    1
    74   109   107   ar
    75    69    70    2
    76    69    71   am
    77    95    94    2
    78   108   107   ar
    79   141   140    2
    80    28    27    2
    81    43    42    1
    82   140   139    1
    83    29    26    1
    84     6     5    1
    85   107   106    1
    86   142   139    1
    87   142   143    1
    88   168   166    1
    89    24    23   ar
    90    24    22   ar
    91    25    26    1
    92    17    16    2
    93    27    26    1
    94    27    30   am
    95    42    39    1
    96     5     2    1
    97   145   143    1
    98    23    21   ar
    99   139   138    1
   100    22    20   ar
   101   144   143    1
   102    37    35    1
   103   106   103    1
   104    38    39    1
   105    38    32   am
   106    31    30    1
   107    31    32    1
   108    31    34    1
   109    16    15    1
   110    39    40    1
   111    21    19   ar
   112    32    33    2
   113   166   167    1
   114   166   163    1
   115    41    40    2
   116    20    19   ar
   117   102   103    1
   118     2     1    1
   119     2     3    1
   120   103   104    1
   121   162   163    1
   122    19    18    1
   123    35    34    1
   124    35    36    1
   125    14    15    1
   126   163   164    1
   127    15    18    1
   128     3     4    2
   129    13    11    1
   130   104   105    2
   131   104   113   am
   132   164   165    2
   133   113   114    1
   134    11     8    1
   135    11    12    1
   136     8     7    1
   137     8     9    1
   138   136   137   ar
   139   136   134   ar
   140   137   135   ar
   141   116   115    2
   142   125   126    1
   143   125   122    1
   144   114   115    1
   145   114   117    1
   146   115   121   am
   147     9    10    2
   148   134   132   ar
   149   135   133   ar
   150   174   173    1
   151   121   122    1
   152   129   130    1
   153   129   128    1
   154   122   123    1
   155   117   118    1
   156   117   119    1
   157   118   120    1
   158   132   133   ar
   159   132   131    1
   160   173   175    1
   161   173   170    1
   162   169   170    1
   163   128   131    1
   164   128   127    1
   165   123   124    2
   166   170   171    1
   167   171   172    2
