@<TRIPOS>MOLECULE
tmp/1qcfA00.pdb
 155 143 0 0 0
SMALL
GASTEIGER

@<TRIPOS>ATOM
      1  N         33.1760   28.9490   40.8980 N.3   192  LEU192     -0.1231
      2  CA        32.5580   29.6940   39.8020 C.3   192  LEU192      0.1693
      3  C         32.3680   31.1710   40.1230 C.2   192  LEU192      0.2593
      4  O         32.4580   32.0150   39.2390 O.2   192  LEU192     -0.2718
      5  CB        31.1960   29.0850   39.4410 C.3   192  LEU192      0.0284
      6  CG        31.2200   27.6550   38.9080 C.3   192  LEU192      0.0019
      7  CD1       29.8030   27.1430   38.7080 C.3   192  LEU192      0.0001
      8  CD2       31.9950   27.6250   37.5950 C.3   192  LEU192      0.0001
      9  N         32.0920   31.4830   41.3830 N.am  193  GLY193     -0.1942
     10  CA        31.8820   32.8690   41.7530 C.3   193  GLY193      0.2014
     11  C         31.7380   33.0410   43.2490 C.2   193  GLY193      0.2638
     12  O         31.6060   32.0640   43.9870 O.2   193  GLY193     -0.2714
     13  N         31.7710   34.2850   43.7080 N.am  194  ALA194     -0.1977
     14  CA        31.6420   34.5490   45.1310 C.3   194  ALA194      0.1597
     15  C         30.3700   35.3230   45.4270 C.2   194  ALA194      0.2287
     16  O         29.5940   35.6410   44.5270 O.2   194  ALA194     -0.2864
     17  CB        32.8510   35.3190   45.6310 C.3   194  ALA194      0.0319
     18  N         29.8950   30.0590   45.0770 N.3   200  VAL200     -0.1245
     19  CA        29.2650   29.1300   44.1500 C.3   200  VAL200      0.1561
     20  C         30.3510   28.2920   43.5010 C.2   200  VAL200      0.2260
     21  O         31.3510   28.8280   43.0150 O.2   200  VAL200     -0.2867
     22  CB        28.4550   29.8760   43.0710 C.3   200  VAL200      0.0252
     23  CG1       27.8490   28.8800   42.0900 C.3   200  VAL200      0.0019
     24  CG2       27.3430   30.6810   43.7400 C.3   200  VAL200      0.0019
     25  N         25.7040   22.9590   40.0030 N.3   212  ALA212     -0.1231
     26  CA        26.3290   24.1310   40.5950 C.3   212  ALA212      0.1694
     27  C         25.9320   23.9990   42.0600 C.2   212  ALA212      0.2592
     28  O         24.8590   23.4820   42.3660 O.2   212  ALA212     -0.2718
     29  CB        25.7540   25.4080   40.0060 C.3   212  ALA212      0.0304
     30  N         26.7940   24.4430   42.9620 N.am  213  VAL213     -0.1966
     31  CA        26.4910   24.3450   44.3790 C.3   213  VAL213      0.1727
     32  C         26.7830   25.6710   45.0500 C.2   213  VAL213      0.2616
     33  O         27.9060   26.1780   44.9720 O.2   213  VAL213     -0.2715
     34  CB        27.3530   23.2560   45.0800 C.3   213  VAL213      0.0290
     35  CG1       26.9890   23.1710   46.5700 C.3   213  VAL213      0.0023
     36  CG2       27.1520   21.9050   44.4030 C.3   213  VAL213      0.0023
     37  N         25.7700   26.2470   45.6870 N.am  214  LYS214     -0.1977
     38  CA        25.9760   27.4820   46.4100 C.3   214  LYS214      0.1596
     39  C         26.1960   27.0740   47.8550 C.2   214  LYS214      0.2287
     40  O         25.3860   26.3450   48.4280 O.2   214  LYS214     -0.2864
     41  CB        24.7660   28.4230   46.3120 C.3   214  LYS214      0.0298
     42  CG        24.9290   29.6500   47.2140 C.3   214  LYS214      0.0038
     43  CD        23.9060   30.7610   46.9540 C.3   214  LYS214      0.0206
     44  CE        24.1870   31.4740   45.6420 C.3   214  LYS214      0.1093
     45  NZ        23.4230   32.7570   45.4960 N.3   214  LYS214     -0.1314
     46  N         15.7680   28.9490   37.5830 N.3   242  VAL242     -0.1245
     47  CA        16.7780   27.9080   37.7060 C.3   242  VAL242      0.1561
     48  C         16.2040   26.7880   38.5620 C.2   242  VAL242      0.2260
     49  O         15.5160   27.0460   39.5510 O.2   242  VAL242     -0.2867
     50  CB        18.0770   28.4430   38.3600 C.3   242  VAL242      0.0252
     51  CG1       17.8220   28.8170   39.8170 C.3   242  VAL242      0.0019
     52  CG2       19.1850   27.3870   38.2530 C.3   242  VAL242      0.0019
     53  N         16.1140   23.9370   41.2790 N.3   244  LEU244     -0.1245
     54  CA        16.7360   23.6860   42.5710 C.3   244  LEU244      0.1561
     55  C         16.6130   22.1770   42.8300 C.2   244  LEU244      0.2260
     56  O         15.5320   21.6820   43.1580 O.2   244  LEU244     -0.2867
     57  CB        16.0130   24.5000   43.6520 C.3   244  LEU244      0.0270
     58  CG        16.4390   24.3210   45.1080 C.3   244  LEU244      0.0019
     59  CD1       17.9480   24.3050   45.2100 C.3   244  LEU244      0.0001
     60  CD2       15.8470   25.4440   45.9490 C.3   244  LEU244      0.0001
     61  N         23.1560   24.5800   48.5360 N.3   255  ILE255     -0.1245
     62  CA        21.9560   24.6840   47.7130 C.3   255  ILE255      0.1561
     63  C         22.4120   24.2100   46.3330 C.2   255  ILE255      0.2260
     64  O         23.1960   24.8980   45.6620 O.2   255  ILE255     -0.2867
     65  CB        21.4620   26.1360   47.5890 C.3   255  ILE255      0.0252
     66  CG1       21.2950   26.7560   48.9750 C.3   255  ILE255      0.0019
     67  CG2       20.1250   26.1540   46.8590 C.3   255  ILE255      0.0019
     68  CD1       20.8730   28.2250   48.9560 C.3   255  ILE255      0.0001
     69  N         21.8330   23.3800   42.4500 N.3   257  THR257     -0.1203
     70  CA        20.9730   23.7250   41.3240 C.3   257  THR257      0.1994
     71  C         21.5970   23.2620   40.0250 C.2   257  THR257      0.2618
     72  O         22.7120   22.7230   40.0030 O.2   257  THR257     -0.2717
     73  CB        20.7600   25.2480   41.1970 C.3   257  THR257      0.1784
     74  OG1       21.9730   25.8640   40.7470 O.3   257  THR257     -0.2211
     75  CG2       20.3650   25.8520   42.5400 C.3   257  THR257      0.0376
     76  N         20.8730   23.4720   38.9340 N.am  258  GLU258     -0.1965
     77  CA        21.3970   23.1020   37.6330 C.3   258  GLU258      0.1733
     78  C         22.5100   24.1070   37.3290 C.2   258  GLU258      0.2616
     79  O         22.5090   25.2180   37.8580 O.2   258  GLU258     -0.2715
     80  CB        20.2860   23.1670   36.5730 C.3   258  GLU258      0.0429
     81  CG        19.6790   24.5460   36.3480 C.3   258  GLU258      0.1163
     82  CD        18.5320   24.5040   35.3530 C.2   258  GLU258      0.3649
     83  OE1       18.7000   23.8670   34.2880 O.co2 258  GLU258     -0.2457
     84  OE2       17.4750   25.1120   35.6300 O.co2 258  GLU258     -0.2457
     85  N         23.4680   23.7060   36.5020 N.am  259  PHE259     -0.1960
     86  CA        24.5860   24.5700   36.1320 C.3   259  PHE259      0.1771
     87  C         24.2750   25.3580   34.8600 C.2   259  PHE259      0.2619
     88  O         23.8240   24.7910   33.8690 O.2   259  PHE259     -0.2715
     89  CB        25.8340   23.7170   35.9120 C.3   259  PHE259      0.0574
     90  CG        26.9610   24.4570   35.2810 C.ar  259  PHE259     -0.0200
     91  CD1       27.6100   25.4780   35.9620 C.ar  259  PHE259     -0.0042
     92  CD2       27.3460   24.1670   33.9790 C.ar  259  PHE259     -0.0042
     93  CE1       28.6260   26.2030   35.3580 C.ar  259  PHE259     -0.0003
     94  CE2       28.3660   24.8900   33.3610 C.ar  259  PHE259     -0.0003
     95  CZ        29.0040   25.9110   34.0560 C.ar  259  PHE259     -0.0000
     96  N         24.5230   26.6640   34.8910 N.am  260  MET260     -0.1977
     97  CA        24.2710   27.5230   33.7360 C.3   260  MET260      0.1605
     98  C         25.6020   27.9650   33.1240 C.2   260  MET260      0.2287
     99  O         26.3520   28.7500   33.7090 O.2   260  MET260     -0.2864
    100  CB        23.4180   28.7200   34.1620 C.3   260  MET260      0.0413
    101  CG        22.0030   28.3120   34.5590 C.3   260  MET260      0.0598
    102  SD        21.0470   27.7030   33.1470 S.3   260  MET260     -0.1393
    103  CE        19.6140   27.1140   33.9600 C.3   260  MET260      0.0692
    104  N         27.0210   31.8660   33.0830 N.3   263  GLY263     -0.1210
    105  CA        27.0370   32.7060   34.2700 C.3   263  GLY263      0.1956
    106  C         25.8650   33.6430   34.4780 C.2   263  GLY263      0.2612
    107  O         24.7630   33.3810   34.0050 O.2   263  GLY263     -0.2717
    108  N         26.0970   34.7330   35.2050 N.am  264  SER264     -0.1952
    109  CA        25.0330   35.6970   35.4700 C.3   264  SER264      0.1924
    110  C         24.8410   36.6050   34.2690 C.2   264  SER264      0.2314
    111  O         25.7730   36.8420   33.4920 O.2   264  SER264     -0.2863
    112  CB        25.3570   36.5580   36.6900 C.3   264  SER264      0.2116
    113  OG        26.4810   37.3800   36.4400 O.3   264  SER264     -0.2180
    114  N         27.4220   39.4210   34.2710 N.3   267  ASP267     -0.1239
    115  CA        28.7250   39.1460   33.6700 C.3   267  ASP267      0.1674
    116  C         28.5980   38.9700   32.1630 C.2   267  ASP267      0.2266
    117  O         29.4390   39.4500   31.4000 O.2   267  ASP267     -0.2867
    118  CB        29.3610   37.8800   34.2480 C.3   267  ASP267      0.1410
    119  CG        29.5880   37.9640   35.7400 C.2   267  ASP267      0.3668
    120  OD1       29.9910   39.0390   36.2460 O.co2 267  ASP267     -0.2456
    121  OD2       29.3900   36.9270   36.4020 O.co2 267  ASP267     -0.2456
    122  N         22.5270   40.3320   38.5950 N.3   309  ALA309     -0.1245
    123  CA        23.4690   39.3860   39.1830 C.3   309  ALA309      0.1562
    124  C         22.7480   38.0820   39.5170 C.2   309  ALA309      0.2260
    125  O         23.3710   37.0190   39.5740 O.2   309  ALA309     -0.2867
    126  CB        24.0900   39.9720   40.4460 C.3   309  ALA309      0.0290
    127  N         20.5800   34.0290   35.5860 N.3   312  LEU312     -0.1245
    128  CA        21.6210   33.1980   34.9870 C.3   312  LEU312      0.1561
    129  C         21.3110   33.0100   33.5090 C.2   312  LEU312      0.2260
    130  O         20.1580   33.1200   33.0950 O.2   312  LEU312     -0.2867
    131  CB        21.6860   31.8350   35.6760 C.3   312  LEU312      0.0270
    132  CG        21.9550   31.8850   37.1860 C.3   312  LEU312      0.0019
    133  CD1       21.9600   30.4710   37.7420 C.3   312  LEU312      0.0001
    134  CD2       23.2860   32.5650   37.4630 C.3   312  LEU312      0.0001
    135  N         17.3780   33.2170   39.3990 N.3   322  ALA322     -0.1231
    136  CA        17.9940   32.4990   40.5100 C.3   322  ALA322      0.1694
    137  C         17.8670   33.2350   41.8410 C.2   322  ALA322      0.2592
    138  O         17.5980   34.4390   41.8730 O.2   322  ALA322     -0.2718
    139  CB        19.4690   32.2580   40.2090 C.3   322  ALA322      0.0304
    140  N         18.0740   32.5030   42.9380 N.am  323  ASP323     -0.1974
    141  CA        18.0200   33.0850   44.2830 C.3   323  ASP323      0.1709
    142  C         16.6460   33.5880   44.7190 C.2   323  ASP323      0.2293
    143  O         16.5480   34.3240   45.6920 O.2   323  ASP323     -0.2864
    144  CB        19.0300   34.2430   44.3880 C.3   323  ASP323      0.1436
    145  CG        20.3080   33.8550   45.1240 C.2   323  ASP323      0.3671
    146  OD1       20.7860   32.7170   44.9520 O.co2 323  ASP323     -0.2456
    147  OD2       20.8480   34.7080   45.8630 O.co2 323  ASP323     -0.2456
    148  N         15.4380   33.6460   48.6290 N.3   326  LEU326     -0.1245
    149  CA        16.5280   33.3810   49.5610 C.3   326  LEU326      0.1561
    150  C         16.7900   34.4830   50.5900 C.2   326  LEU326      0.2260
    151  O         17.1380   34.1940   51.7370 O.2   326  LEU326     -0.2867
    152  CB        17.8150   33.0950   48.7850 C.3   326  LEU326      0.0270
    153  CG        19.0000   32.6250   49.6290 C.3   326  LEU326      0.0019
    154  CD1       18.6490   31.2820   50.2610 C.3   326  LEU326      0.0001
    155  CD2       20.2390   32.4840   48.7510 C.3   326  LEU326      0.0001
@<TRIPOS>BOND
     1   117   116    2
     2   116   115    1
     3   104   105    1
     4   130   129    2
     5    98    99    2
     6    98    97    1
     7   102   103    1
     8   102   101    1
     9    94    92   ar
    10    94    95   ar
    11   111   110    2
    12   129   128    1
    13   115   118    1
    14   115   114    1
    15    97   100    1
    16    97    96    1
    17    88    87    2
    18    92    90   ar
    19   107   106    2
    20    95    93   ar
    21   100   101    1
    22   118   119    1
    23   110   109    1
    24   105   106    1
    25    83    82   ar
    26   106   108   am
    27    87    96   am
    28    87    86    1
    29   128   127    1
    30   128   131    1
    31   108   109    1
    32    90    89    1
    33    90    91   ar
    34    82    84   ar
    35    82    81    1
    36    93    91   ar
    37   109   112    1
    38   131   132    1
    39   119   120   ar
    40   119   121   ar
    41    89    86    1
    42    86    85    1
    43    81    80    1
    44   113   112    1
    45    85    78   am
    46    80    77    1
    47   132   134    1
    48   132   133    1
    49    78    77    1
    50    78    79    2
    51    46    47    1
    52     8     6    1
    53    77    76    1
    54    47    50    1
    55    47    48    1
    56    52    50    1
    57    50    51    1
    58    48    49    2
    59   122   123    1
    60     7     6    1
    61     6     5    1
    62    76    71   am
    63   123   124    1
    64   123   126    1
    65     4     3    2
    66   135   136    1
    67     5     2    1
    68   124   125    2
    69     2     3    1
    70     2     1    1
    71    25    26    1
    72    72    71    2
    73    29    26    1
    74    71    70    1
    75     3     9   am
    76   139   136    1
    77   136   137    1
    78    26    27    1
    79    74    73    1
    80    73    70    1
    81    73    75    1
    82    53    54    1
    83    70    69    1
    84     9    10    1
    85    10    11    1
    86   137   138    2
    87   137   140   am
    88    27    28    2
    89    27    30   am
    90    23    22    1
    91    54    55    1
    92    54    57    1
    93    55    56    2
    94   140   141    1
    95    30    31    1
    96    21    20    2
    97    22    24    1
    98    22    19    1
    99    11    13   am
   100    11    12    2
   101    20    19    1
   102    57    58    1
   103    13    14    1
   104    19    18    1
   105   141   144    1
   106   141   142    1
   107    31    32    1
   108    31    34    1
   109   144   145    1
   110    36    34    1
   111    16    15    2
   112   142   143    2
   113   146   145   ar
   114    33    32    2
   115    32    37   am
   116    34    35    1
   117    58    59    1
   118    58    60    1
   119   145   147   ar
   120    14    15    1
   121    14    17    1
   122    45    44    1
   123    44    43    1
   124    64    63    2
   125    37    38    1
   126    41    38    1
   127    41    42    1
   128    63    62    1
   129    38    39    1
   130    67    65    1
   131    43    42    1
   132    65    62    1
   133    65    66    1
   134    62    61    1
   135    39    40    2
   136   148   149    1
   137   155   153    1
   138   152   149    1
   139   152   153    1
   140    68    66    1
   141   149   150    1
   142   153   154    1
   143   150   151    2
