@<TRIPOS>MOLECULE
tmp/1qciB00.pdb
 90 87 0 0 0
SMALL
GASTEIGER

@<TRIPOS>ATOM
      1  N          0.3840   13.1600   50.3900 N.3    71  LEU71      -0.1231
      2  CA         0.9340   12.6080   51.6380 C.3    71  LEU71       0.1693
      3  C          2.2660   11.8840   51.5300 C.2    71  LEU71       0.2592
      4  O          2.6400   11.1140   52.4190 O.2    71  LEU71      -0.2718
      5  CB        -0.0660   11.6930   52.3530 C.3    71  LEU71       0.0284
      6  CG        -0.8970   12.2900   53.4880 C.3    71  LEU71       0.0019
      7  CD1       -1.3980   11.1560   54.3650 C.3    71  LEU71       0.0001
      8  CD2       -0.0570   13.2510   54.3220 C.3    71  LEU71       0.0001
      9  N          2.9930   12.1180   50.4490 N.am   72  TYR72      -0.1962
     10  CA         4.2840   11.4670   50.2920 C.3    72  TYR72       0.1771
     11  C          5.3190   12.1080   51.1810 C.2    72  TYR72       0.2619
     12  O          5.2630   13.3090   51.4530 O.2    72  TYR72      -0.2715
     13  CB         4.7750   11.5470   48.8460 C.3    72  TYR72       0.0574
     14  CG         4.2540   10.4490   47.9590 C.ar   72  TYR72      -0.0198
     15  CD1        5.1280    9.6500   47.2320 C.ar   72  TYR72      -0.0009
     16  CD2        2.8950   10.2010   47.8570 C.ar   72  TYR72      -0.0009
     17  CE1        4.6580    8.6220   46.4200 C.ar   72  TYR72       0.0417
     18  CE2        2.4140    9.1870   47.0550 C.ar   72  TYR72       0.0417
     19  CZ         3.2970    8.3980   46.3370 C.ar   72  TYR72       0.1957
     20  OH         2.8080    7.3870   45.5380 O.3    72  TYR72      -0.2866
     21  N          6.2430   11.2870   51.6600 N.am   73  VAL73      -0.1977
     22  CA         7.3330   11.7630   52.4860 C.3    73  VAL73       0.1596
     23  C          8.4080   12.1680   51.4700 C.2    73  VAL73       0.2287
     24  O          8.8790   11.3450   50.6780 O.2    73  VAL73      -0.2864
     25  CB         7.8310   10.6570   53.4700 C.3    73  VAL73       0.0276
     26  CG1        9.1520   11.0430   54.1110 C.3    73  VAL73       0.0022
     27  CG2        6.7840   10.4170   54.5640 C.3    73  VAL73       0.0022
     28  N         11.6790    6.9880   46.7370 N.3   121  SER121     -0.1202
     29  CA        10.7290    6.5580   47.7560 C.3   121  SER121      0.2020
     30  C          9.7720    5.4260   47.4020 C.2   121  SER121      0.2619
     31  O          8.8610    5.1440   48.1800 O.2   121  SER121     -0.2717
     32  CB         9.9280    7.7530   48.2680 C.3   121  SER121      0.2103
     33  OG         9.0890    8.2810   47.2690 O.3   121  SER121     -0.2182
     34  N          9.9510    4.8010   46.2340 N.am  122  ARG122     -0.1965
     35  CA         9.0860    3.6920   45.8310 C.3   122  ARG122      0.1729
     36  C          9.3600    2.4840   46.7180 C.2   122  ARG122      0.2616
     37  O         10.5000    2.2220   47.0890 O.2   122  ARG122     -0.2715
     38  CB         9.3110    3.2930   44.3600 C.3   122  ARG122      0.0348
     39  CG         8.9300    4.3550   43.3440 C.3   122  ARG122      0.0492
     40  CD         8.8720    3.8020   41.9110 C.3   122  ARG122      0.2205
     41  NE        10.0760    3.0670   41.5110 N.pl3 122  ARG122     -0.0865
     42  CZ        10.0840    1.7880   41.1380 C.cat 122  ARG122      0.5346
     43  NH1        8.9550    1.0900   41.1190 N.pl3 122  ARG122      0.1354
     44  NH2       11.2190    1.2140   40.7680 N.pl3 122  ARG122      0.1354
     45  N          8.3060    1.7380   47.0280 N.am  123  TYR123     -0.1974
     46  CA         8.4330    0.5550   47.8640 C.3   123  TYR123      0.1639
     47  C          9.3720   -0.5000   47.3110 C.2   123  TYR123      0.2290
     48  O         10.0860   -1.1370   48.0780 O.2   123  TYR123     -0.2864
     49  CB         7.0560   -0.0470   48.1550 C.3   123  TYR123      0.0560
     50  CG         6.3040    0.6480   49.2660 C.ar  123  TYR123     -0.0198
     51  CD1        6.8750    0.7930   50.5320 C.ar  123  TYR123     -0.0009
     52  CD2        5.0090    1.1210   49.0640 C.ar  123  TYR123     -0.0009
     53  CE1        6.1600    1.3950   51.5790 C.ar  123  TYR123      0.0417
     54  CE2        4.2920    1.7160   50.0900 C.ar  123  TYR123      0.0417
     55  CZ         4.8720    1.8500   51.3490 C.ar  123  TYR123      0.1957
     56  OH         4.1470    2.4160   52.3680 O.3   123  TYR123     -0.2866
     57  N          7.2240    5.5670   56.8700 N.3   171  ILE171     -0.1245
     58  CA         6.2160    5.8570   55.8510 C.3   171  ILE171      0.1561
     59  C          4.9060    5.1040   56.1140 C.2   171  ILE171      0.2260
     60  O          3.8220    5.6620   55.9530 O.2   171  ILE171     -0.2867
     61  CB         6.7450    5.5270   54.4130 C.3   171  ILE171      0.0252
     62  CG1        7.8230    6.5450   54.0060 C.3   171  ILE171      0.0019
     63  CG2        5.6010    5.5520   53.4130 C.3   171  ILE171      0.0019
     64  CD1        8.7550    6.0780   52.9160 C.3   171  ILE171      0.0001
     65  N          2.4160    7.9040   57.0530 N.3   175  SER175     -0.1202
     66  CA         1.5870    8.2010   55.8740 C.3   175  SER175      0.2020
     67  C          0.4720    7.1850   55.6190 C.2   175  SER175      0.2618
     68  O         -0.6810    7.5600   55.4690 O.2   175  SER175     -0.2717
     69  CB         2.4500    8.3420   54.6190 C.3   175  SER175      0.2103
     70  OG         3.1860    9.5530   54.6300 O.3   175  SER175     -0.2182
     71  N          0.8120    5.9030   55.5950 N.am  176  GLU176     -0.1979
     72  CA        -0.2000    4.8810   55.3370 C.3   176  GLU176      0.1602
     73  C         -1.2780    4.8370   56.4010 C.2   176  GLU176      0.2287
     74  O         -2.4570    4.7070   56.0740 O.2   176  GLU176     -0.2864
     75  CB         0.4440    3.5100   55.1580 C.3   176  GLU176      0.0415
     76  CG         1.4950    3.4610   54.0520 C.3   176  GLU176      0.1163
     77  CD         0.9430    3.7450   52.6520 C.2   176  GLU176      0.3649
     78  OE1       -0.2240    4.1630   52.4860 O.co2 176  GLU176     -0.2457
     79  OE2        1.7080    3.5580   51.6970 O.co2 176  GLU176     -0.2457
     80  N         -3.7220    7.7530   55.9190 N.3   179  ARG179     -0.1245
     81  CA        -4.6000    7.5210   54.7780 C.3   179  ARG179      0.1563
     82  C         -5.6550    6.4590   55.0820 C.2   179  ARG179      0.2260
     83  O         -6.8080    6.6100   54.6900 O.2   179  ARG179     -0.2867
     84  CB        -3.7900    7.0660   53.5570 C.3   179  ARG179      0.0307
     85  CG        -2.8190    8.1060   53.0400 C.3   179  ARG179      0.0489
     86  CD        -2.2400    7.7460   51.6910 C.3   179  ARG179      0.2205
     87  NE        -0.9890    7.0220   51.7580 N.pl3 179  ARG179     -0.0865
     88  CZ         0.1720    7.4680   51.2850 C.cat 179  ARG179      0.5346
     89  NH1        0.2680    8.6510   50.6920 N.pl3 179  ARG179      0.1354
     90  NH2        1.2580    6.7340   51.4510 N.pl3 179  ARG179      0.1354
@<TRIPOS>BOND
     1    44    42    1
     2    43    42    1
     3    42    41    2
     4    41    40    1
     5    40    39    1
     6    39    38    1
     7    38    35    1
     8    20    19    1
     9    35    34    1
    10    35    36    1
    11    34    30   am
    12    19    17   ar
    13    19    18   ar
    14    17    15   ar
    15    36    45   am
    16    36    37    2
    17    28    29    1
    18    45    46    1
    19    18    16   ar
    20    15    14   ar
    21    33    32    1
    22    47    46    1
    23    47    48    2
    24    30    29    1
    25    30    31    2
    26    29    32    1
    27    16    14   ar
    28    46    49    1
    29    14    13    1
    30    49    50    1
    31    13    10    1
    32    52    50   ar
    33    52    54   ar
    34    50    51   ar
    35    54    55   ar
    36    10     9    1
    37    10    11    1
    38     1     2    1
    39     9     3   am
    40    51    53   ar
    41    24    23    2
    42    89    88    1
    43    11    12    2
    44    11    21   am
    45    88    90    1
    46    88    87    2
    47    55    53   ar
    48    55    56    1
    49    23    22    1
    50     3     2    1
    51     3     4    2
    52     2     5    1
    53    21    22    1
    54    86    87    1
    55    86    85    1
    56    79    77   ar
    57     5     6    1
    58    22    25    1
    59    78    77   ar
    60    77    76    1
    61    64    62    1
    62    85    84    1
    63    63    61    1
    64    25    26    1
    65    25    27    1
    66     6     8    1
    67     6     7    1
    68    84    81    1
    69    62    61    1
    70    76    75    1
    71    61    58    1
    72    69    70    1
    73    69    66    1
    74    83    82    2
    75    81    82    1
    76    81    80    1
    77    75    72    1
    78    72    71    1
    79    72    73    1
    80    68    67    2
    81    71    67   am
    82    67    66    1
    83    58    59    1
    84    58    57    1
    85    66    65    1
    86    60    59    2
    87    74    73    2
