@<TRIPOS>MOLECULE
tmp/1qcjB00.pdb
 135 130 0 0 0
SMALL
GASTEIGER

@<TRIPOS>ATOM
      1  N          0.0510   13.6140   50.4410 N.3    71  LEU71      -0.1231
      2  CA         0.6520   13.1370   51.6980 C.3    71  LEU71       0.1693
      3  C          2.0000   12.4060   51.6050 C.2    71  LEU71       0.2592
      4  O          2.4230   11.7530   52.5720 O.2    71  LEU71      -0.2718
      5  CB        -0.3370   12.2900   52.5190 C.3    71  LEU71       0.0284
      6  CG        -1.0600   12.9720   53.6900 C.3    71  LEU71       0.0019
      7  CD1       -1.6520   11.8930   54.5850 C.3    71  LEU71       0.0001
      8  CD2       -0.1210   13.8560   54.5060 C.3    71  LEU71       0.0001
      9  N          2.6710   12.4980   50.4580 N.am   72  TYR72      -0.1962
     10  CA         3.9570   11.8380   50.3020 C.3    72  TYR72       0.1771
     11  C          5.0380   12.5190   51.1280 C.2    72  TYR72       0.2619
     12  O          4.9910   13.7230   51.3600 O.2    72  TYR72      -0.2715
     13  CB         4.3810   11.8070   48.8360 C.3    72  TYR72       0.0574
     14  CG         3.6290   10.7970   48.0050 C.ar   72  TYR72      -0.0198
     15  CD1        3.8420   10.7010   46.6340 C.ar   72  TYR72      -0.0009
     16  CD2        2.6990    9.9410   48.5860 C.ar   72  TYR72      -0.0009
     17  CE1        3.1470    9.7770   45.8570 C.ar   72  TYR72       0.0417
     18  CE2        2.0010    9.0140   47.8260 C.ar   72  TYR72       0.0417
     19  CZ         2.2300    8.9330   46.4610 C.ar   72  TYR72       0.1957
     20  OH         1.5680    7.9900   45.7040 O.3    72  TYR72      -0.2866
     21  N          5.9680   11.7180   51.6340 N.am   73  VAL73      -0.1977
     22  CA         7.0890   12.2350   52.4210 C.3    73  VAL73       0.1596
     23  C          8.1210   12.6810   51.3990 C.2    73  VAL73       0.2287
     24  O          8.5810   11.8700   50.5930 O.2    73  VAL73      -0.2864
     25  CB         7.7430   11.1300   53.2970 C.3    73  VAL73       0.0276
     26  CG1        8.9690   11.6960   54.0030 C.3    73  VAL73       0.0022
     27  CG2        6.7350   10.5740   54.3100 C.3    73  VAL73       0.0022
     28  N         11.3460    7.5250   46.8250 N.3   121  SER121     -0.1202
     29  CA        10.3990    7.0660   47.8320 C.3   121  SER121      0.2020
     30  C          9.5270    5.8670   47.4740 C.2   121  SER121      0.2619
     31  O          8.7000    5.4510   48.2820 O.2   121  SER121     -0.2717
     32  CB         9.4900    8.2190   48.2310 C.3   121  SER121      0.2103
     33  OG         8.7630    8.6730   47.1080 O.3   121  SER121     -0.2182
     34  N          9.6910    5.3190   46.2730 N.am  122  ARG122     -0.1965
     35  CA         8.8950    4.1700   45.8570 C.3   122  ARG122      0.1729
     36  C          9.1810    2.9580   46.7350 C.2   122  ARG122      0.2616
     37  O         10.3270    2.6820   47.0640 O.2   122  ARG122     -0.2715
     38  CB         9.1730    3.8170   44.3920 C.3   122  ARG122      0.0348
     39  CG         8.8580    4.9490   43.4260 C.3   122  ARG122      0.0492
     40  CD         8.8280    4.4760   41.9820 C.3   122  ARG122      0.2205
     41  NE        10.0440    3.7710   41.5680 N.pl3 122  ARG122     -0.0865
     42  CZ        10.1080    2.4630   41.3770 C.cat 122  ARG122      0.5346
     43  NH1        9.0350    1.7160   41.5680 N.pl3 122  ARG122      0.1354
     44  NH2       11.2350    1.9050   40.9760 N.pl3 122  ARG122      0.1354
     45  N          8.1360    2.2330   47.1200 N.am  123  TYR123     -0.1960
     46  CA         8.3260    1.0490   47.9530 C.3   123  TYR123      0.1756
     47  C          9.3110    0.0210   47.4230 C.2   123  TYR123      0.2461
     48  O         10.1130   -0.4890   48.1940 O.2   123  TYR123     -0.2730
     49  CB         6.9930    0.3900   48.2990 C.3   123  TYR123      0.0574
     50  CG         6.2360    1.0840   49.4070 C.ar  123  TYR123     -0.0198
     51  CD1        6.8490    1.3620   50.6440 C.ar  123  TYR123     -0.0009
     52  CD2        4.9160    1.4890   49.2190 C.ar  123  TYR123     -0.0009
     53  CE1        6.1450    2.0370   51.6640 C.ar  123  TYR123      0.0417
     54  CE2        4.2170    2.1570   50.2230 C.ar  123  TYR123      0.0417
     55  CZ         4.8390    2.4290   51.4390 C.ar  123  TYR123      0.1957
     56  OH         4.1400    3.1300   52.3850 O.3   123  TYR123     -0.2866
     57  N          9.3000   -0.2700   46.1000 N.am  124  PRO124     -0.2727
     58  CA        10.2550   -1.2640   45.5960 C.3   124  PRO124      0.1402
     59  C         11.6890   -0.8250   45.7970 C.2   124  PRO124      0.2269
     60  O         12.6000   -1.6620   45.9310 O.2   124  PRO124     -0.2865
     61  CB         9.9210   -1.3350   44.1030 C.3   124  PRO124      0.0296
     62  CG         8.4780   -1.0280   44.0750 C.3   124  PRO124      0.0237
     63  CD         8.4090    0.1440   45.0060 C.3   124  PRO124      0.0939
     64  N         12.3540   -1.0020   49.6590 N.3   127  GLU127     -0.1245
     65  CA        12.4800   -2.4130   50.0010 C.3   127  GLU127      0.1567
     66  C         13.8100   -2.9420   49.4950 C.2   127  GLU127      0.2260
     67  O         14.4590   -3.7470   50.1590 O.2   127  GLU127     -0.2867
     68  CB        11.3300   -3.2210   49.4010 C.3   127  GLU127      0.0388
     69  CG         9.9690   -2.9880   50.0670 C.3   127  GLU127      0.1160
     70  CD         8.7840   -3.4240   49.1920 C.2   127  GLU127      0.3649
     71  OE1        8.9990   -3.9220   48.0660 O.co2 127  GLU127     -0.2457
     72  OE2        7.6300   -3.2440   49.6130 O.co2 127  GLU127     -0.2457
     73  N          8.1150   -5.3320   51.9580 N.3   135  ARG135     -0.1245
     74  CA         8.1550   -4.5930   53.2120 C.3   135  ARG135      0.1563
     75  C          7.3860   -5.3440   54.3030 C.2   135  ARG135      0.2260
     76  O          7.3260   -4.8950   55.4500 O.2   135  ARG135     -0.2867
     77  CB         7.6070   -3.1670   53.0200 C.3   135  ARG135      0.0307
     78  CG         6.1100   -3.0010   53.2440 C.3   135  ARG135      0.0489
     79  CD         5.5510   -1.7720   52.5510 C.3   135  ARG135      0.2205
     80  NE         5.5760   -1.9800   51.1100 N.pl3 135  ARG135     -0.0865
     81  CZ         4.5330   -1.8600   50.2970 C.cat 135  ARG135      0.5346
     82  NH1        3.3440   -1.5110   50.7600 N.pl3 135  ARG135      0.1354
     83  NH2        4.6800   -2.1510   49.0160 N.pl3 135  ARG135      0.1354
     84  N          7.0820    5.8760   56.9850 N.3   171  ILE171     -0.1245
     85  CA         6.1440    6.2220   55.9160 C.3   171  ILE171      0.1561
     86  C          4.7840    5.6210   56.2130 C.2   171  ILE171      0.2260
     87  O          3.7610    6.3100   56.1770 O.2   171  ILE171     -0.2867
     88  CB         6.6730    5.7540   54.5330 C.3   171  ILE171      0.0252
     89  CG1        7.6760    6.7960   53.9940 C.3   171  ILE171      0.0019
     90  CG2        5.5080    5.5290   53.5600 C.3   171  ILE171      0.0019
     91  CD1        8.5040    6.3520   52.8080 C.3   171  ILE171      0.0001
     92  N          1.9920    8.6230   57.2220 N.3   175  SER175     -0.1202
     93  CA         1.0930    8.9390   56.1070 C.3   175  SER175      0.2020
     94  C          0.1760    7.7770   55.7260 C.2   175  SER175      0.2618
     95  O         -1.0060    7.9790   55.5160 O.2   175  SER175     -0.2717
     96  CB         1.8810    9.4510   54.9040 C.3   175  SER175      0.2103
     97  OG         2.8970    8.5390   54.6130 O.3   175  SER175     -0.2182
     98  N          0.6760    6.5550   55.6820 N.am  176  GLU176     -0.1979
     99  CA        -0.2270    5.4580   55.3590 C.3   176  GLU176      0.1602
    100  C         -1.2650    5.2910   56.4680 C.2   176  GLU176      0.2287
    101  O         -2.4220    4.9720   56.1940 O.2   176  GLU176     -0.2864
    102  CB         0.5290    4.1660   55.1360 C.3   176  GLU176      0.0415
    103  CG         1.6530    4.2660   54.1100 C.3   176  GLU176      0.1163
    104  CD         1.1830    4.4820   52.6560 C.2   176  GLU176      0.3649
    105  OE1        0.0340    4.9010   52.3940 O.co2 176  GLU176     -0.2457
    106  OE2        1.9940    4.2060   51.7670 O.co2 176  GLU176     -0.2457
    107  N         -3.6720    8.1550   55.9630 N.3   179  ARG179     -0.1245
    108  CA        -4.4840    7.9270   54.7630 C.3   179  ARG179      0.1563
    109  C         -5.5570    6.8870   55.0020 C.2   179  ARG179      0.2260
    110  O         -6.7050    7.0730   54.6000 O.2   179  ARG179     -0.2867
    111  CB        -3.5990    7.5200   53.5750 C.3   179  ARG179      0.0307
    112  CG        -2.6600    8.6400   53.1710 C.3   179  ARG179      0.0489
    113  CD        -2.1120    8.5370   51.7670 C.3   179  ARG179      0.2205
    114  NE        -0.9470    7.6780   51.6160 N.pl3 179  ARG179     -0.0865
    115  CZ         0.2220    8.0960   51.1440 C.cat 179  ARG179      0.5346
    116  NH1        0.3860    9.3600   50.7750 N.pl3 179  ARG179      0.1354
    117  NH2        1.2260    7.2450   51.0240 N.pl3 179  ARG179      0.1354
    118  N         -2.0670    0.5920   50.6300 N.3   205  GLN205     -0.1231
    119  CA        -1.0560    1.6130   50.3440 C.3   205  GLN205      0.1698
    120  C         -0.8310    1.7020   48.8240 C.2   205  GLN205      0.2592
    121  O         -0.7010    2.7870   48.2600 O.2   205  GLN205     -0.2718
    122  CB         0.2790    1.2470   51.0300 C.3   205  GLN205      0.0381
    123  CG         0.2520    1.2180   52.5770 C.3   205  GLN205      0.0905
    124  CD         1.4550    0.4920   53.1730 C.2   205  GLN205      0.2608
    125  OE1        2.3060   -0.0290   52.4560 O.2   205  GLN205     -0.2717
    126  NE2        1.5130    0.4360   54.4970 N.am  205  GLN205     -0.0878
    127  N         -0.8190    0.5440   48.1760 N.am  206  GLU206     -0.1979
    128  CA        -0.5850    0.4350   46.7380 C.3   206  GLU206      0.1602
    129  C         -1.7570    0.7640   45.8210 C.2   206  GLU206      0.2287
    130  O         -1.5740    0.8860   44.6120 O.2   206  GLU206     -0.2864
    131  CB        -0.1060   -0.9640   46.4220 C.3   206  GLU206      0.0415
    132  CG         0.7810   -1.5230   47.5150 C.3   206  GLU206      0.1163
    133  CD         1.3170   -2.9030   47.2170 C.2   206  GLU206      0.3649
    134  OE1        2.3450   -3.2600   47.8250 O.co2 206  GLU206     -0.2457
    135  OE2        0.7340   -3.6260   46.3810 O.co2 206  GLU206     -0.2457
@<TRIPOS>BOND
     1    44    42    1
     2    42    43    1
     3    42    41    2
     4    41    40    1
     5    40    39    1
     6    39    38    1
     7    62    61    1
     8    62    63    1
     9    61    58    1
    10    38    35    1
    11   130   129    2
    12    63    57    1
    13    58    59    1
    14    58    57    1
    15    20    19    1
    16    59    60    2
    17   129   128    1
    18    35    34    1
    19    35    36    1
    20    17    19   ar
    21    17    15   ar
    22    57    47   am
    23    34    30   am
    24   135   133   ar
    25   131   128    1
    26   131   132    1
    27    19    18   ar
    28    15    14   ar
    29    36    37    2
    30    36    45   am
    31   128   127    1
    32    28    29    1
    33    33    32    1
    34    45    46    1
    35   133   132    1
    36   133   134   ar
    37    47    46    1
    38    47    48    2
    39    30    29    1
    40    30    31    2
    41    18    16   ar
    42    29    32    1
    43    46    49    1
    44    14    16   ar
    45    14    13    1
    46    71    70   ar
    47   127   120   am
    48   121   120    2
    49    49    50    1
    50   120   119    1
    51    13    10    1
    52    83    81    1
    53    70    72   ar
    54    70    69    1
    55    52    50   ar
    56    52    54   ar
    57    68    65    1
    58    68    69    1
    59    50    51   ar
    60    66    65    1
    61    66    67    2
    62    64    65    1
    63    54    55   ar
    64    81    82    1
    65    81    80    2
    66    10     9    1
    67    10    11    1
    68   119   118    1
    69   119   122    1
    70     1     2    1
    71     9     3   am
    72    24    23    2
    73    51    53   ar
    74   116   115    1
    75   117   115    1
    76   122   123    1
    77    80    79    1
    78    11    12    2
    79    11    21   am
    80   115   114    2
    81    23    22    1
    82    55    53   ar
    83    55    56    1
    84     3     2    1
    85     3     4    2
    86   114   113    1
    87    21    22    1
    88     2     5    1
    89   106   104   ar
    90   113   112    1
    91    73    74    1
    92   105   104   ar
    93    22    25    1
    94   125   124    2
    95     5     6    1
    96    79    78    1
    97   123   124    1
    98   104   103    1
    99    91    89    1
   100    77    74    1
   101    77    78    1
   102   112   111    1
   103   124   126   am
   104    74    75    1
   105    25    26    1
   106    25    27    1
   107    90    88    1
   108   111   108    1
   109     6     8    1
   110     6     7    1
   111    89    88    1
   112   103   102    1
   113    75    76    2
   114    88    85    1
   115   110   109    2
   116    97    96    1
   117   108   109    1
   118   108   107    1
   119    96    93    1
   120   102    99    1
   121    99    98    1
   122    99   100    1
   123    95    94    2
   124    98    94   am
   125    94    93    1
   126    85    86    1
   127    85    84    1
   128    93    92    1
   129    87    86    2
   130   101   100    2
