@<TRIPOS>MOLECULE
tmp/1qcoA01.pdb
 118 113 0 0 0
SMALL
GASTEIGER

@<TRIPOS>ATOM
      1  N         26.6880   -2.1810    4.6920 N.3   126  ASP126     -0.1225
      2  CA        27.9790   -2.0280    4.0520 C.3   126  ASP126      0.1805
      3  C         28.4270   -3.3870    3.5280 C.2   126  ASP126      0.2598
      4  O         28.4170   -4.3790    4.2650 O.2   126  ASP126     -0.2718
      5  CB        28.9920   -1.4840    5.0620 C.3   126  ASP126      0.1424
      6  CG        30.3150   -1.1210    4.4250 C.2   126  ASP126      0.3668
      7  OD1       30.3380   -0.7730    3.2330 O.co2 126  ASP126     -0.2456
      8  OD2       31.3390   -1.1770    5.1210 O.co2 126  ASP126     -0.2456
      9  N         28.7790   -3.4420    2.2470 N.am  127  PHE127     -0.1962
     10  CA        29.2450   -4.6860    1.6470 C.3   127  PHE127      0.1771
     11  C         30.7710   -4.8170    1.6940 C.2   127  PHE127      0.2619
     12  O         31.4670   -3.9460    2.2320 O.2   127  PHE127     -0.2715
     13  CB        28.6760   -4.8630    0.2370 C.3   127  PHE127      0.0574
     14  CG        27.2050   -5.1720    0.2230 C.ar  127  PHE127     -0.0200
     15  CD1       26.2590   -4.1470    0.1920 C.ar  127  PHE127     -0.0042
     16  CD2       26.7610   -6.4820    0.2810 C.ar  127  PHE127     -0.0042
     17  CE1       24.8890   -4.4290    0.2230 C.ar  127  PHE127     -0.0003
     18  CE2       25.3960   -6.7770    0.3140 C.ar  127  PHE127     -0.0003
     19  CZ        24.4580   -5.7520    0.2860 C.ar  127  PHE127     -0.0000
     20  N         31.2800   -5.9040    1.1190 N.am  128  TYR128     -0.1974
     21  CA        32.7120   -6.2470    1.1310 C.3   128  TYR128      0.1639
     22  C         33.0270   -6.7220   -0.2950 C.2   128  TYR128      0.2290
     23  O         33.7920   -7.6690   -0.4940 O.2   128  TYR128     -0.2864
     24  CB        32.8340   -7.4270    2.1150 C.3   128  TYR128      0.0560
     25  CG        34.2080   -7.8280    2.6030 C.ar  128  TYR128     -0.0198
     26  CD1       35.2830   -6.9440    2.5610 C.ar  128  TYR128     -0.0009
     27  CD2       34.4130   -9.0870    3.1780 C.ar  128  TYR128     -0.0009
     28  CE1       36.5260   -7.2970    3.0850 C.ar  128  TYR128      0.0417
     29  CE2       35.6560   -9.4490    3.7070 C.ar  128  TYR128      0.0417
     30  CZ        36.7020   -8.5470    3.6580 C.ar  128  TYR128      0.1957
     31  OH        37.9240   -8.8580    4.2110 O.3   128  TYR128     -0.2866
     32  N         40.4420   -5.7130   -2.2310 N.3   133  HIS133     -0.1241
     33  CA        40.3610   -5.2390   -0.8550 C.3   133  HIS133      0.1621
     34  C         40.2090   -6.4320    0.0860 C.2   133  HIS133      0.2264
     35  O         40.9360   -6.5430    1.0790 O.2   133  HIS133     -0.2867
     36  CB        39.1930   -4.2710   -0.6530 C.3   133  HIS133      0.0745
     37  CG        38.9430   -3.9360    0.7870 C.ar  133  HIS133      0.0817
     38  ND1       39.7690   -3.1040    1.5090 N.ar  133  HIS133     -0.2268
     39  CD2       38.0050   -4.3800    1.6580 C.ar  133  HIS133      0.1154
     40  CE1       39.3600   -3.0530    2.7640 C.ar  133  HIS133      0.1986
     41  NE2       38.2910   -3.8220    2.8820 N.ar  133  HIS133     -0.2212
     42  N         27.2870   -6.4550    5.9880 N.3   159  TYR159     -0.1241
     43  CA        26.8200   -6.4090    7.3740 C.3   159  TYR159      0.1605
     44  C         25.9910   -5.1530    7.5960 C.2   159  TYR159      0.2264
     45  O         26.1030   -4.1900    6.8380 O.2   159  TYR159     -0.2867
     46  CB        28.0050   -6.4150    8.3490 C.3   159  TYR159      0.0534
     47  CG        28.8600   -5.1640    8.2990 C.ar  159  TYR159     -0.0201
     48  CD1       28.7160   -4.1600    9.2580 C.ar  159  TYR159     -0.0009
     49  CD2       29.7710   -4.9580    7.2620 C.ar  159  TYR159     -0.0009
     50  CE1       29.4460   -2.9740    9.1840 C.ar  159  TYR159      0.0417
     51  CE2       30.5110   -3.7800    7.1750 C.ar  159  TYR159      0.0417
     52  CZ        30.3390   -2.7870    8.1370 C.ar  159  TYR159      0.1957
     53  OH        31.0240   -1.5970    8.0030 O.3   159  TYR159     -0.2866
     54  N         38.1490    4.5300    4.8040 N.3   199  GLU199     -0.1245
     55  CA        37.8170    3.4970    3.8300 C.3   199  GLU199      0.1567
     56  C         37.0780    4.1570    2.6790 C.2   199  GLU199      0.2260
     57  O         35.9800    4.6930    2.8580 O.2   199  GLU199     -0.2867
     58  CB        36.9560    2.3880    4.4400 C.3   199  GLU199      0.0388
     59  CG        37.7200    1.4680    5.3790 C.3   199  GLU199      0.1160
     60  CD        36.9400    0.2260    5.7800 C.2   199  GLU199      0.3649
     61  OE1       35.7060    0.2770    5.7680 O.co2 199  GLU199     -0.2457
     62  OE2       37.5600   -0.8080    6.1040 O.co2 199  GLU199     -0.2457
     63  N         34.7960    4.4150   -0.2560 N.3   201  GLU201     -0.1245
     64  CA        33.6450    3.6610   -0.7180 C.3   201  GLU201      0.1567
     65  C         32.6990    4.5680   -1.4620 C.2   201  GLU201      0.2260
     66  O         32.8760    5.7780   -1.5050 O.2   201  GLU201     -0.2867
     67  CB        32.8810    3.0860    0.4740 C.3   201  GLU201      0.0388
     68  CG        33.7150    2.1940    1.3650 C.3   201  GLU201      0.1160
     69  CD        32.8720    1.3680    2.2980 C.2   201  GLU201      0.3649
     70  OE1       31.7890    0.8830    1.8950 O.co2 201  GLU201     -0.2457
     71  OE2       33.3020    1.1970    3.4370 O.co2 201  GLU201     -0.2457
     72  N         40.6670    0.2260   13.6080 N.3   237  ARG237     -0.1245
     73  CA        41.1890   -1.1340   13.4250 C.3   237  ARG237      0.1563
     74  C         41.4770   -1.9420   14.6930 C.2   237  ARG237      0.2260
     75  O         41.1340   -3.1210   14.7670 O.2   237  ARG237     -0.2867
     76  CB        42.4490   -1.1120   12.5510 C.3   237  ARG237      0.0307
     77  CG        42.2940   -0.3790   11.2270 C.3   237  ARG237      0.0489
     78  CD        41.4560   -1.1620   10.2580 C.3   237  ARG237      0.2205
     79  NE        41.3410   -0.4960    8.9610 N.pl3 237  ARG237     -0.0865
     80  CZ        40.3470   -0.7240    8.1070 C.cat 237  ARG237      0.5346
     81  NH1       39.4000   -1.6020    8.4210 N.pl3 237  ARG237      0.1354
     82  NH2       40.2730   -0.0490    6.9660 N.pl3 237  ARG237      0.1354
     83  N         38.2180   -2.7920   16.4350 N.3   240  GLN240     -0.1245
     84  CA        37.5310   -3.8290   15.6770 C.3   240  GLN240      0.1566
     85  C         38.1330   -5.2220   15.8600 C.2   240  GLN240      0.2260
     86  O         37.4010   -6.2010   16.0940 O.2   240  GLN240     -0.2867
     87  CB        37.5010   -3.5100   14.1850 C.3   240  GLN240      0.0367
     88  CG        36.6200   -4.4930   13.4090 C.3   240  GLN240      0.0905
     89  CD        36.7900   -4.3890   11.9080 C.2   240  GLN240      0.2608
     90  OE1       36.9980   -3.3030   11.3690 O.2   240  GLN240     -0.2717
     91  NE2       36.7080   -5.5220   11.2250 N.am  240  GLN240     -0.0878
     92  N         31.8360   -6.3980   12.7210 N.3   249  PRO249     -0.2116
     93  CA        32.2300   -5.0130   13.0170 C.3   249  PRO249      0.1372
     94  C         31.1300   -4.3280   13.8200 C.2   249  PRO249      0.2244
     95  O         29.9560   -4.3660   13.4390 O.2   249  PRO249     -0.2868
     96  CB        32.3500   -4.3780   11.6250 C.3   249  PRO249      0.0268
     97  CG        32.6050   -5.5370   10.7140 C.3   249  PRO249      0.0207
     98  CD        31.6880   -6.5970   11.2690 C.3   249  PRO249      0.0892
     99  N         33.3570    0.6600   13.7740 N.3   253  LYS253     -0.1245
    100  CA        32.7950    1.3360   12.6070 C.3   253  LYS253      0.1561
    101  C         31.7680    2.4180   12.9420 C.2   253  LYS253      0.2260
    102  O         31.6630    3.4150   12.2400 O.2   253  LYS253     -0.2867
    103  CB        32.0540    0.3250   11.7160 C.3   253  LYS253      0.0271
    104  CG        32.8980   -0.7730   11.1120 C.3   253  LYS253      0.0035
    105  CD        33.8820   -0.2100   10.1250 C.3   253  LYS253      0.0206
    106  CE        34.5500   -1.3230    9.3600 C.3   253  LYS253      0.1093
    107  NZ        35.5090   -0.7680    8.3820 N.3   253  LYS253     -0.1314
    108  N         31.6390   -1.1770   -0.2030 N.3   349  GLY349     -0.1210
    109  CA        32.7100   -1.8660    0.4870 C.3   349  GLY349      0.1956
    110  C         33.9330   -1.0830    0.0410 C.2   349  GLY349      0.2612
    111  O         33.8500   -0.3110   -0.9300 O.2   349  GLY349     -0.2717
    112  N         35.0490   -1.2310    0.7470 N.am  350  THR350     -0.1952
    113  CA        36.2640   -0.4990    0.4020 C.3   350  THR350      0.1897
    114  C         36.7330   -0.8440   -1.0110 C.2   350  THR350      0.2313
    115  O         36.8760   -2.0210   -1.3650 O.2   350  THR350     -0.2863
    116  CB        37.3730   -0.7750    1.4240 C.3   350  THR350      0.1794
    117  OG1       36.8860   -0.4440    2.7330 O.3   350  THR350     -0.2208
    118  CG2       38.6040    0.0510    1.1190 C.3   350  THR350      0.0378
@<TRIPOS>BOND
     1    32    33    1
     2    66    65    2
     3    65    64    1
     4   115   114    2
     5   114   113    1
     6   111   110    2
     7    33    36    1
     8    33    34    1
     9    64    63    1
    10    64    67    1
    11    36    37    1
    12    23    22    2
    13    22    21    1
    14   108   109    1
    15   110   109    1
    16   110   112   am
    17    34    35    2
    18    15    14   ar
    19    15    17   ar
    20    14    13    1
    21    14    16   ar
    22    17    19   ar
    23    13    10    1
    24    16    18   ar
    25    19    18   ar
    26   113   112    1
    27   113   116    1
    28    67    68    1
    29    37    38   ar
    30    37    39   ar
    31   118   116    1
    32    20    21    1
    33    20    11   am
    34    21    24    1
    35    68    69    1
    36   116   117    1
    37    38    40   ar
    38    10    11    1
    39    10     9    1
    40    39    41   ar
    41    11    12    2
    42    70    69   ar
    43    24    25    1
    44     9     3   am
    45    69    71   ar
    46    26    25   ar
    47    26    28   ar
    48    25    27   ar
    49    56    57    2
    50    56    55    1
    51    40    41   ar
    52    28    30   ar
    53    27    29   ar
    54     7     6   ar
    55     3     2    1
    56     3     4    2
    57    30    29   ar
    58    30    31    1
    59    55    58    1
    60    55    54    1
    61     2     1    1
    62     2     5    1
    63     6     5    1
    64     6     8   ar
    65    58    59    1
    66    59    60    1
    67    61    60   ar
    68    60    62   ar
    69    42    43    1
    70    45    44    2
    71    82    80    1
    72    51    49   ar
    73    51    52   ar
    74    49    47   ar
    75    43    44    1
    76    43    46    1
    77    53    52    1
    78    80    81    1
    79    80    79    2
    80    52    50   ar
    81    47    46    1
    82    47    48   ar
    83   107   106    1
    84    79    78    1
    85    50    48   ar
    86   106   105    1
    87   105   104    1
    88    78    77    1
    89    97    98    1
    90    97    96    1
    91   104   103    1
    92    91    89   am
    93    77    76    1
    94    98    92    1
    95    90    89    2
    96    96    93    1
    97   103   100    1
    98    89    88    1
    99   102   101    2
   100    76    73    1
   101   100   101    1
   102   100    99    1
   103    92    93    1
   104    93    94    1
   105    88    87    1
   106    73    72    1
   107    73    74    1
   108    95    94    2
   109    87    84    1
   110    74    75    2
   111    84    85    1
   112    84    83    1
   113    85    86    2
