@<TRIPOS>MOLECULE
tmp/1qcoA00.pdb
 124 117 0 0 0
SMALL
GASTEIGER

@<TRIPOS>ATOM
      1  N         31.2800   -5.9040    1.1190 N.3   128  TYR128     -0.1241
      2  CA        32.7120   -6.2470    1.1310 C.3   128  TYR128      0.1605
      3  C         33.0270   -6.7220   -0.2950 C.2   128  TYR128      0.2264
      4  O         33.7920   -7.6690   -0.4940 O.2   128  TYR128     -0.2867
      5  CB        32.8340   -7.4270    2.1150 C.3   128  TYR128      0.0534
      6  CG        34.2080   -7.8280    2.6030 C.ar  128  TYR128     -0.0201
      7  CD1       35.2830   -6.9440    2.5610 C.ar  128  TYR128     -0.0009
      8  CD2       34.4130   -9.0870    3.1780 C.ar  128  TYR128     -0.0009
      9  CE1       36.5260   -7.2970    3.0850 C.ar  128  TYR128      0.0417
     10  CE2       35.6560   -9.4490    3.7070 C.ar  128  TYR128      0.0417
     11  CZ        36.7020   -8.5470    3.6580 C.ar  128  TYR128      0.1957
     12  OH        37.9240   -8.8580    4.2110 O.3   128  TYR128     -0.2866
     13  N         40.4420   -5.7130   -2.2310 N.3   133  HIS133     -0.1241
     14  CA        40.3610   -5.2390   -0.8550 C.3   133  HIS133      0.1621
     15  C         40.2090   -6.4320    0.0860 C.2   133  HIS133      0.2264
     16  O         40.9360   -6.5430    1.0790 O.2   133  HIS133     -0.2867
     17  CB        39.1930   -4.2710   -0.6530 C.3   133  HIS133      0.0745
     18  CG        38.9430   -3.9360    0.7870 C.ar  133  HIS133      0.0817
     19  ND1       39.7690   -3.1040    1.5090 N.ar  133  HIS133     -0.2268
     20  CD2       38.0050   -4.3800    1.6580 C.ar  133  HIS133      0.1154
     21  CE1       39.3600   -3.0530    2.7640 C.ar  133  HIS133      0.1986
     22  NE2       38.2910   -3.8220    2.8820 N.ar  133  HIS133     -0.2212
     23  N         43.0480   -7.6170    2.8630 N.3   137  VAL137     -0.1245
     24  CA        42.7140   -7.7380    4.2780 C.3   137  VAL137      0.1561
     25  C         42.8970   -9.1930    4.7330 C.2   137  VAL137      0.2260
     26  O         43.5200   -9.4550    5.7710 O.2   137  VAL137     -0.2867
     27  CB        41.2800   -7.2360    4.5650 C.3   137  VAL137      0.0252
     28  CG1       40.9060   -7.5160    5.9990 C.3   137  VAL137      0.0019
     29  CG2       41.2040   -5.7380    4.3150 C.3   137  VAL137      0.0019
     30  N         45.3060  -10.7280    7.8310 N.3   141  PHE141     -0.1227
     31  CA        44.7380  -11.3630    9.0170 C.3   141  PHE141      0.1736
     32  C         44.8190  -12.8920    9.0430 C.2   141  PHE141      0.2595
     33  O         45.0560  -13.4910   10.0920 O.2   141  PHE141     -0.2718
     34  CB        43.2690  -10.9500    9.1860 C.3   141  PHE141      0.0547
     35  CG        43.0580   -9.4720    9.3950 C.ar  141  PHE141     -0.0202
     36  CD1       41.7780   -8.9250    9.2910 C.ar  141  PHE141     -0.0042
     37  CD2       44.1260   -8.6240    9.6990 C.ar  141  PHE141     -0.0042
     38  CE1       41.5620   -7.5590    9.4840 C.ar  141  PHE141     -0.0003
     39  CE2       43.9210   -7.2570    9.8930 C.ar  141  PHE141     -0.0003
     40  CZ        42.6340   -6.7250    9.7840 C.ar  141  PHE141     -0.0000
     41  N         44.6110  -13.5170    7.8910 N.am  142  ARG142     -0.1980
     42  CA        44.6000  -14.9720    7.7870 C.3   142  ARG142      0.1597
     43  C         45.7420  -15.5840    6.9940 C.2   142  ARG142      0.2287
     44  O         45.9960  -16.7880    7.0950 O.2   142  ARG142     -0.2864
     45  CB        43.2740  -15.4290    7.1750 C.3   142  ARG142      0.0334
     46  CG        42.0610  -15.1160    8.0310 C.3   142  ARG142      0.0492
     47  CD        40.7830  -15.5210    7.3290 C.3   142  ARG142      0.2205
     48  NE        40.4310  -14.6080    6.2450 N.pl3 142  ARG142     -0.0865
     49  CZ        39.7590  -13.4730    6.4190 C.cat 142  ARG142      0.5346
     50  NH1       39.3720  -13.1160    7.6390 N.pl3 142  ARG142      0.1354
     51  NH2       39.4700  -12.6980    5.3780 N.pl3 142  ARG142      0.1354
     52  N         37.6640  -16.2020    2.3480 N.3   149  LEU149     -0.1245
     53  CA        36.8900  -17.2880    2.9400 C.3   149  LEU149      0.1561
     54  C         36.0110  -17.9150    1.8520 C.2   149  LEU149      0.2260
     55  O         35.6970  -17.2640    0.8520 O.2   149  LEU149     -0.2867
     56  CB        36.0590  -16.7630    4.1150 C.3   149  LEU149      0.0270
     57  CG        36.9490  -16.3270    5.2870 C.3   149  LEU149      0.0019
     58  CD1       36.1400  -15.6440    6.3530 C.3   149  LEU149      0.0001
     59  CD2       37.6630  -17.5350    5.8740 C.3   149  LEU149      0.0001
     60  N         38.1490    4.5300    4.8040 N.3   199  GLU199     -0.1245
     61  CA        37.8170    3.4970    3.8300 C.3   199  GLU199      0.1567
     62  C         37.0780    4.1570    2.6790 C.2   199  GLU199      0.2260
     63  O         35.9800    4.6930    2.8580 O.2   199  GLU199     -0.2867
     64  CB        36.9560    2.3880    4.4400 C.3   199  GLU199      0.0388
     65  CG        37.7200    1.4680    5.3790 C.3   199  GLU199      0.1160
     66  CD        36.9400    0.2260    5.7800 C.2   199  GLU199      0.3649
     67  OE1       35.7060    0.2770    5.7680 O.co2 199  GLU199     -0.2457
     68  OE2       37.5600   -0.8080    6.1040 O.co2 199  GLU199     -0.2457
     69  N         40.6670    0.2260   13.6080 N.3   237  ARG237     -0.1245
     70  CA        41.1890   -1.1340   13.4250 C.3   237  ARG237      0.1563
     71  C         41.4770   -1.9420   14.6930 C.2   237  ARG237      0.2260
     72  O         41.1340   -3.1210   14.7670 O.2   237  ARG237     -0.2867
     73  CB        42.4490   -1.1120   12.5510 C.3   237  ARG237      0.0307
     74  CG        42.2940   -0.3790   11.2270 C.3   237  ARG237      0.0489
     75  CD        41.4560   -1.1620   10.2580 C.3   237  ARG237      0.2205
     76  NE        41.3410   -0.4960    8.9610 N.pl3 237  ARG237     -0.0865
     77  CZ        40.3470   -0.7240    8.1070 C.cat 237  ARG237      0.5346
     78  NH1       39.4000   -1.6020    8.4210 N.pl3 237  ARG237      0.1354
     79  NH2       40.2730   -0.0490    6.9660 N.pl3 237  ARG237      0.1354
     80  N         38.2180   -2.7920   16.4350 N.3   240  GLN240     -0.1245
     81  CA        37.5310   -3.8290   15.6770 C.3   240  GLN240      0.1566
     82  C         38.1330   -5.2220   15.8600 C.2   240  GLN240      0.2260
     83  O         37.4010   -6.2010   16.0940 O.2   240  GLN240     -0.2867
     84  CB        37.5010   -3.5100   14.1850 C.3   240  GLN240      0.0367
     85  CG        36.6200   -4.4930   13.4090 C.3   240  GLN240      0.0905
     86  CD        36.7900   -4.3890   11.9080 C.2   240  GLN240      0.2608
     87  OE1       36.9980   -3.3030   11.3690 O.2   240  GLN240     -0.2717
     88  NE2       36.7080   -5.5220   11.2250 N.am  240  GLN240     -0.0878
     89  N         35.2420   -7.9560   16.9360 N.3   244  TYR244     -0.1241
     90  CA        34.5140   -8.5760   15.8360 C.3   244  TYR244      0.1605
     91  C         34.2610  -10.0650   15.6630 C.2   244  TYR244      0.2264
     92  O         33.4200  -10.4430   14.8540 O.2   244  TYR244     -0.2867
     93  CB        34.8990   -7.8970   14.5120 C.3   244  TYR244      0.0534
     94  CG        35.9200   -8.6080   13.6700 C.ar  244  TYR244     -0.0201
     95  CD1       35.6230   -8.9600   12.3490 C.ar  244  TYR244     -0.0009
     96  CD2       37.1880   -8.9130   14.1690 C.ar  244  TYR244     -0.0009
     97  CE1       36.5610   -9.5970   11.5460 C.ar  244  TYR244      0.0417
     98  CE2       38.1380   -9.5540   13.3750 C.ar  244  TYR244      0.0417
     99  CZ        37.8160   -9.8920   12.0650 C.ar  244  TYR244      0.1957
    100  OH        38.7440  -10.5270   11.2810 O.3   244  TYR244     -0.2866
    101  N         31.8360   -6.3980   12.7210 N.3   249  PRO249     -0.2116
    102  CA        32.2300   -5.0130   13.0170 C.3   249  PRO249      0.1372
    103  C         31.1300   -4.3280   13.8200 C.2   249  PRO249      0.2244
    104  O         29.9560   -4.3660   13.4390 O.2   249  PRO249     -0.2868
    105  CB        32.3500   -4.3780   11.6250 C.3   249  PRO249      0.0268
    106  CG        32.6050   -5.5370   10.7140 C.3   249  PRO249      0.0207
    107  CD        31.6880   -6.5970   11.2690 C.3   249  PRO249      0.0892
    108  N         33.3570    0.6600   13.7740 N.3   253  LYS253     -0.1245
    109  CA        32.7950    1.3360   12.6070 C.3   253  LYS253      0.1561
    110  C         31.7680    2.4180   12.9420 C.2   253  LYS253      0.2260
    111  O         31.6630    3.4150   12.2400 O.2   253  LYS253     -0.2867
    112  CB        32.0540    0.3250   11.7160 C.3   253  LYS253      0.0271
    113  CG        32.8980   -0.7730   11.1120 C.3   253  LYS253      0.0035
    114  CD        33.8820   -0.2100   10.1250 C.3   253  LYS253      0.0206
    115  CE        34.5500   -1.3230    9.3600 C.3   253  LYS253      0.1093
    116  NZ        35.5090   -0.7680    8.3820 N.3   253  LYS253     -0.1314
    117  N         45.3030    0.9590    5.9300 N.3   363  LEU363     -0.1245
    118  CA        45.6840   -0.3620    6.4220 C.3   363  LEU363      0.1561
    119  C         46.3860   -1.0560    5.2440 C.2   363  LEU363      0.2260
    120  O         47.4370   -1.6830    5.4070 O.2   363  LEU363     -0.2867
    121  CB        44.4290   -1.1590    6.8240 C.3   363  LEU363      0.0270
    122  CG        44.5620   -2.6570    7.1210 C.3   363  LEU363      0.0019
    123  CD1       45.3120   -2.9020    8.4360 C.3   363  LEU363      0.0001
    124  CD2       43.1780   -3.2760    7.1710 C.3   363  LEU363      0.0001
@<TRIPOS>BOND
     1    13    14    1
     2    14    17    1
     3    14    15    1
     4    17    18    1
     5     4     3    2
     6     3     2    1
     7    15    16    2
     8    18    19   ar
     9    18    20   ar
    10    55    54    2
    11     1     2    1
    12     2     5    1
    13    19    21   ar
    14    20    22   ar
    15    54    53    1
    16     5     6    1
    17    52    53    1
    18     7     6   ar
    19     7     9   ar
    20     6     8   ar
    21    62    63    2
    22    62    61    1
    23    21    22   ar
    24    23    24    1
    25    53    56    1
    26     9    11   ar
    27     8    10   ar
    28    11    10   ar
    29    11    12    1
    30    61    64    1
    31    61    60    1
    32    56    57    1
    33    24    27    1
    34    24    25    1
    35    29    27    1
    36    64    65    1
    37    27    28    1
    38    25    26    2
    39   119   120    2
    40   119   118    1
    41    57    59    1
    42    57    58    1
    43    51    49    1
    44    65    66    1
    45    67    66   ar
    46    66    68   ar
    47   117   118    1
    48    48    49    2
    49    48    47    1
    50    49    50    1
    51   118   121    1
    52   121   122    1
    53    79    77    1
    54    43    44    2
    55    43    42    1
    56   122   124    1
    57   122   123    1
    58    45    42    1
    59    45    46    1
    60    47    46    1
    61    42    41    1
    62    30    31    1
    63    41    32   am
    64    77    78    1
    65    77    76    2
    66   116   115    1
    67    76    75    1
    68    31    32    1
    69    31    34    1
    70    32    33    2
    71    34    35    1
    72    36    35   ar
    73    36    38   ar
    74   115   114    1
    75    35    37   ar
    76    38    40   ar
    77    37    39   ar
    78    40    39   ar
    79   114   113    1
    80    75    74    1
    81   106   107    1
    82   106   105    1
    83   113   112    1
    84    88    86   am
    85    74    73    1
    86   107   101    1
    87   100    99    1
    88    87    86    2
    89    97    99   ar
    90    97    95   ar
    91   105   102    1
    92   112   109    1
    93    86    85    1
    94    99    98   ar
    95   111   110    2
    96    95    94   ar
    97    73    70    1
    98   109   110    1
    99   109   108    1
   100   101   102    1
   101   102   103    1
   102    98    96   ar
   103    85    84    1
   104    70    69    1
   105    70    71    1
   106   104   103    2
   107    94    96   ar
   108    94    93    1
   109    84    81    1
   110    93    90    1
   111    71    72    2
   112    92    91    2
   113    91    90    1
   114    81    82    1
   115    81    80    1
   116    90    89    1
   117    82    83    2
