@<TRIPOS>MOLECULE
tmp/1qcpA00.pdb
 183 184 0 0 0
SMALL
GASTEIGER

@<TRIPOS>ATOM
      1  N         47.0710   22.8630   38.3120 N.3    24  PHE24      -0.1227
      2  CA        46.5670   23.5270   39.5050 C.3    24  PHE24       0.1736
      3  C         45.7160   22.6220   40.3850 C.2    24  PHE24       0.2595
      4  O         45.4780   22.9290   41.5520 O.2    24  PHE24      -0.2718
      5  CB        45.7790   24.7860   39.1200 C.3    24  PHE24       0.0547
      6  CG        44.4780   24.5090   38.4170 C.ar   24  PHE24      -0.0202
      7  CD1       43.3000   24.3390   39.1450 C.ar   24  PHE24      -0.0042
      8  CD2       44.4200   24.4550   37.0280 C.ar   24  PHE24      -0.0042
      9  CE1       42.0820   24.1200   38.4950 C.ar   24  PHE24      -0.0003
     10  CE2       43.2080   24.2370   36.3680 C.ar   24  PHE24      -0.0003
     11  CZ        42.0370   24.0710   37.1010 C.ar   24  PHE24      -0.0000
     12  N         45.2630   21.5060   39.8270 N.am   25  CYS25      -0.1970
     13  CA        44.4430   20.5660   40.5800 C.3    25  CYS25       0.1712
     14  C         44.4210   19.2060   39.9070 C.2    25  CYS25       0.2296
     15  O         44.7480   19.0740   38.7250 O.2    25  CYS25      -0.2864
     16  CB        43.0000   21.0760   40.6970 C.3    25  CYS25       0.0983
     17  SG        42.6610   22.1620   42.1210 S.3    25  CYS25      -0.0798
     18  N         36.1920   23.5230   44.7220 N.3    40  HIS40      -0.1226
     19  CA        37.0780   24.6310   45.0370 C.3    40  HIS40       0.1752
     20  C         38.1730   24.7710   43.9830 C.2    40  HIS40       0.2596
     21  O         38.9270   25.7420   43.9850 O.2    40  HIS40      -0.2718
     22  CB        37.6630   24.4740   46.4550 C.3    40  HIS40       0.0759
     23  CG        38.8260   23.5310   46.5530 C.ar   40  HIS40       0.0818
     24  ND1       38.7050   22.2480   47.0420 N.ar   40  HIS40      -0.2268
     25  CD2       40.1410   23.7020   46.2710 C.ar   40  HIS40       0.1154
     26  CE1       39.8920   21.6690   47.0560 C.ar   40  HIS40       0.1986
     27  NE2       40.7810   22.5300   46.5940 N.ar   40  HIS40      -0.2212
     28  N         38.2430   23.8040   43.0710 N.am   41  CYS41      -0.1970
     29  CA        39.2350   23.8370   41.9970 C.3    41  CYS41       0.1712
     30  C         38.6540   24.5390   40.7710 C.2    41  CYS41       0.2296
     31  O         39.3550   24.7600   39.7860 O.2    41  CYS41      -0.2864
     32  CB        39.6580   22.4140   41.6030 C.3    41  CYS41       0.0983
     33  SG        40.8130   21.5930   42.7570 S.3    41  CYS41      -0.0798
     34  N         37.3670   26.9850   37.8830 N.3    43  LYS43      -0.1245
     35  CA        37.9240   28.1460   37.1950 C.3    43  LYS43       0.1561
     36  C         37.6530   27.9900   35.7020 C.2    43  LYS43       0.2260
     37  O         37.4420   26.8760   35.2170 O.2    43  LYS43      -0.2867
     38  CB        39.4290   28.2740   37.4630 C.3    43  LYS43       0.0271
     39  CG        40.3080   27.2870   36.7230 C.3    43  LYS43       0.0035
     40  CD        41.7180   27.8410   36.5550 C.3    43  LYS43       0.0206
     41  CE        42.4320   27.9800   37.8930 C.3    43  LYS43       0.1093
     42  NZ        43.8140   28.5190   37.7260 N.3    43  LYS43      -0.1314
     43  N         33.5620   24.4640   52.6240 N.3    81  LEU81      -0.1245
     44  CA        33.9810   23.4390   51.6770 C.3    81  LEU81       0.1561
     45  C         33.0400   22.2360   51.6880 C.2    81  LEU81       0.2260
     46  O         33.4000   21.1490   51.2430 O.2    81  LEU81      -0.2867
     47  CB        35.4190   22.9910   51.9580 C.3    81  LEU81       0.0270
     48  CG        36.5360   23.9320   51.4900 C.3    81  LEU81       0.0019
     49  CD1       37.8240   23.1400   51.3290 C.3    81  LEU81       0.0001
     50  CD2       36.1600   24.5950   50.1760 C.3    81  LEU81       0.0001
     51  N         50.3760   12.1400   53.8760 N.3   171  ASP171     -0.1225
     52  CA        49.1460   12.8840   53.6330 C.3   171  ASP171      0.1805
     53  C         49.1600   13.4830   52.2260 C.2   171  ASP171      0.2598
     54  O         50.1550   13.3740   51.5030 O.2   171  ASP171     -0.2718
     55  CB        49.0730   14.0080   54.6760 C.3   171  ASP171      0.1424
     56  CG        47.7450   14.7310   54.6940 C.2   171  ASP171      0.3668
     57  OD1       46.7830   14.2670   54.0500 O.co2 171  ASP171     -0.2456
     58  OD2       47.6740   15.7770   55.3730 O.co2 171  ASP171     -0.2456
     59  N         48.0460   14.0910   51.8300 N.am  172  SER172     -0.1938
     60  CA        47.9880   14.7600   50.5390 C.3   172  SER172      0.2055
     61  C         48.4020   16.1900   50.8850 C.2   172  SER172      0.2643
     62  O         48.5570   16.5190   52.0670 O.2   172  SER172     -0.2714
     63  CB        46.5720   14.7240   49.9470 C.3   172  SER172      0.2130
     64  OG        45.5820   15.0850   50.8920 O.3   172  SER172     -0.2179
     65  N         48.5930   17.0380   49.8810 N.am  173  CYS173     -0.1953
     66  CA        49.0110   18.4110   50.1390 C.3   173  CYS173      0.1843
     67  C         48.5870   19.3270   48.9930 C.2   173  CYS173      0.2625
     68  O         47.9460   18.8790   48.0410 O.2   173  CYS173     -0.2714
     69  CB        50.5350   18.4520   50.3240 C.3   173  CYS173      0.0997
     70  SG        51.1910   19.8500   51.2930 S.3   173  CYS173     -0.0797
     71  N         48.9400   20.6070   49.0920 N.am  174  GLN174     -0.1963
     72  CA        48.5880   21.5860   48.0650 C.3   174  GLN174      0.1733
     73  C         49.0270   21.1300   46.6780 C.2   174  GLN174      0.2617
     74  O         50.1960   20.8350   46.4560 O.2   174  GLN174     -0.2715
     75  CB        49.2320   22.9420   48.3740 C.3   174  GLN174      0.0408
     76  CG        48.4170   23.8150   49.3100 C.3   174  GLN174      0.0908
     77  CD        48.2930   23.2140   50.6990 C.2   174  GLN174      0.2608
     78  OE1       49.2730   22.7310   51.2670 O.2   174  GLN174     -0.2717
     79  NE2       47.0840   23.2360   51.2510 N.am  174  GLN174     -0.0878
     80  N         48.0880   21.0810   45.7410 N.am  175  GLY175     -0.1940
     81  CA        48.4250   20.6600   44.3950 C.3   175  GLY175      0.2014
     82  C         47.7440   19.3430   44.1350 C.2   175  GLY175      0.2639
     83  O         47.5350   18.9330   42.9860 O.2   175  GLY175     -0.2714
     84  N         47.3920   18.6700   45.2220 N.am  176  ASP176     -0.1957
     85  CA        46.7080   17.4010   45.1120 C.3   176  ASP176      0.1840
     86  C         45.2140   17.6650   45.0760 C.2   176  ASP176      0.2622
     87  O         44.4400   16.7440   44.7780 O.2   176  ASP176     -0.2715
     88  CB        47.0070   16.4840   46.3130 C.3   176  ASP176      0.1450
     89  CG        48.4340   15.9350   46.3110 C.2   176  ASP176      0.3671
     90  OD1       48.9490   15.5350   45.2510 O.co2 176  ASP176     -0.2456
     91  OD2       49.0440   15.9030   47.3960 O.co2 176  ASP176     -0.2456
     92  N         44.7590   18.8960   45.3420 N.am  177  SER177     -0.1950
     93  CA        43.3120   18.9850   45.3200 C.3   177  SER177      0.1924
     94  C         42.5580   18.6310   44.0630 C.2   177  SER177      0.2314
     95  O         42.9910   18.8780   42.9360 O.2   177  SER177     -0.2863
     96  CB        42.6180   20.2130   45.9700 C.3   177  SER177      0.2116
     97  OG        43.1920   20.7190   47.1670 O.3   177  SER177     -0.2180
     98  N         40.3850   14.7680   47.0190 N.3   191  VAL191     -0.1231
     99  CA        41.2430   15.5860   47.8750 C.3   191  VAL191      0.1692
    100  C         40.5870   16.9500   48.0660 C.2   191  VAL191      0.2593
    101  O         40.4160   17.7050   47.1130 O.2   191  VAL191     -0.2718
    102  CB        42.6430   15.7640   47.2570 C.3   191  VAL191      0.0266
    103  CG1       43.5220   16.5860   48.1940 C.3   191  VAL191      0.0020
    104  CG2       43.2710   14.3910   46.9850 C.3   191  VAL191      0.0020
    105  N         40.2140   17.2580   49.3040 N.am  192  SER192     -0.1938
    106  CA        39.5340   18.5120   49.6010 C.3   192  SER192      0.2055
    107  C         40.3490   19.5130   50.4060 C.2   192  SER192      0.2643
    108  O         40.7320   20.5650   49.8860 O.2   192  SER192     -0.2714
    109  CB        38.2200   18.2260   50.3350 C.3   192  SER192      0.2130
    110  OG        37.4170   19.3890   50.4330 O.3   192  SER192     -0.2179
    111  N         40.6030   19.2010   51.6750 N.am  193  TRP193     -0.1959
    112  CA        41.3600   20.1200   52.5210 C.3   193  TRP193      0.1771
    113  C         42.0330   19.4740   53.7250 C.2   193  TRP193      0.2620
    114  O         42.0080   18.2540   53.8930 O.2   193  TRP193     -0.2715
    115  CB        40.4490   21.2620   52.9980 C.3   193  TRP193      0.0590
    116  CG        39.2750   20.8120   53.8240 C.ar  193  TRP193      0.0006
    117  CD1       38.1020   20.2850   53.3630 C.ar  193  TRP193      0.0946
    118  CD2       39.1650   20.8420   55.2550 C.ar  193  TRP193      0.0152
    119  NE1       37.2690   19.9840   54.4160 N.ar  193  TRP193     -0.2442
    120  CE2       37.8960   20.3170   55.5890 C.ar  193  TRP193      0.0810
    121  CE3       40.0150   21.2650   56.2890 C.ar  193  TRP193      0.0012
    122  CZ2       37.4550   20.1980   56.9170 C.ar  193  TRP193      0.0191
    123  CZ3       39.5760   21.1470   57.6140 C.ar  193  TRP193      0.0001
    124  CH2       38.3050   20.6170   57.9110 C.ar  193  TRP193      0.0015
    125  N         42.6460   20.3160   54.5510 N.am  194  GLY194     -0.1940
    126  CA        43.3260   19.8520   55.7480 C.3   194  GLY194      0.2014
    127  C         44.1270   20.9860   56.3570 C.2   194  GLY194      0.2640
    128  O         44.2940   22.0320   55.7340 O.2   194  GLY194     -0.2714
    129  N         44.6130   20.7970   57.5770 N.am  195  SER195     -0.1935
    130  CA        45.4120   21.8270   58.2300 C.3   195  SER195      0.2055
    131  C         46.8780   21.4540   58.0310 C.2   195  SER195      0.2644
    132  O         47.3720   20.4860   58.6170 O.2   195  SER195     -0.2714
    133  CB        45.0710   21.9020   59.7210 C.3   195  SER195      0.2130
    134  OG        45.8310   22.9070   60.3700 O.3   195  SER195     -0.2179
    135  N         47.5700   22.2190   57.1950 N.am  196  GLY196     -0.1939
    136  CA        48.9600   21.9130   56.9160 C.3   196  GLY196      0.2014
    137  C         48.9920   20.6110   56.1400 C.2   196  GLY196      0.2639
    138  O         48.0010   20.2440   55.5070 O.2   196  GLY196     -0.2714
    139  N         50.1180   19.9070   56.1830 N.am  197  CYS197     -0.1967
    140  CA        50.2430   18.6360   55.4780 C.3   197  CYS197      0.1712
    141  C         51.0490   17.6450   56.3040 C.2   197  CYS197      0.2296
    142  O         52.1230   17.9770   56.8070 O.2   197  CYS197     -0.2864
    143  CB        50.9330   18.8350   54.1270 C.3   197  CYS197      0.0983
    144  SG        50.0400   19.9130   52.9640 S.3   197  CYS197     -0.0798
    145  N         46.2010   15.8990   62.3740 N.3   202  LYS202     -0.1231
    146  CA        45.6010   16.7420   61.3410 C.3   202  LYS202      0.1678
    147  C         45.5800   15.9640   60.0230 C.2   202  LYS202      0.2434
    148  O         46.3240   16.2760   59.0930 O.2   202  LYS202     -0.2733
    149  CB        46.4040   18.0360   61.1770 C.3   202  LYS202      0.0284
    150  CG        46.4440   18.9020   62.4270 C.3   202  LYS202      0.0035
    151  CD        45.3580   19.9640   62.3900 C.3   202  LYS202      0.0206
    152  CE        44.2510   19.6780   63.3930 C.3   202  LYS202      0.1093
    153  NZ        43.5190   20.9200   63.7810 N.3   202  LYS202     -0.1314
    154  N         44.7060   14.9490   59.9230 N.am  203  PRO203     -0.2718
    155  CA        44.6090   14.1330   58.7070 C.3   203  PRO203      0.1535
    156  C         43.9810   14.8840   57.5390 C.2   203  PRO203      0.2599
    157  O         43.4460   15.9810   57.7020 O.2   203  PRO203     -0.2715
    158  CB        43.7560   12.9470   59.1430 C.3   203  PRO203      0.0310
    159  CG        42.8750   13.5180   60.2040 C.3   203  PRO203      0.0237
    160  CD        43.7240   14.5300   60.9390 C.3   203  PRO203      0.0939
    161  N         44.0540   14.2890   56.3560 N.am  204  GLY204     -0.1941
    162  CA        43.4680   14.9270   55.1970 C.3   204  GLY204      0.2014
    163  C         41.9610   14.7680   55.2230 C.2   204  GLY204      0.2639
    164  O         41.4410   13.7610   55.7130 O.2   204  GLY204     -0.2714
    165  N         41.2540   15.7710   54.7200 N.am  205  VAL205     -0.1963
    166  CA        39.7970   15.7260   54.6620 C.3   205  VAL205      0.1727
    167  C         39.4200   15.5430   53.1930 C.2   205  VAL205      0.2616
    168  O         39.9200   16.2570   52.3190 O.2   205  VAL205     -0.2715
    169  CB        39.1590   17.0240   55.2170 C.3   205  VAL205      0.0290
    170  CG1       37.6480   16.8440   55.3580 C.3   205  VAL205      0.0023
    171  CG2       39.7810   17.3740   56.5680 C.3   205  VAL205      0.0023
    172  N         38.5390   14.5810   52.9330 N.am  206  TYR206     -0.1974
    173  CA        38.1230   14.2600   51.5780 C.3   206  TYR206      0.1639
    174  C         36.6160   14.3010   51.3710 C.2   206  TYR206      0.2290
    175  O         35.8450   13.9780   52.2750 O.2   206  TYR206     -0.2864
    176  CB        38.6560   12.8750   51.2150 C.3   206  TYR206      0.0560
    177  CG        40.1540   12.7710   51.3920 C.ar  206  TYR206     -0.0198
    178  CD1       41.0180   13.1150   50.3550 C.ar  206  TYR206     -0.0009
    179  CD2       40.7110   12.3910   52.6140 C.ar  206  TYR206     -0.0009
    180  CE1       42.3950   13.0930   50.5240 C.ar  206  TYR206      0.0417
    181  CE2       42.0910   12.3650   52.7950 C.ar  206  TYR206      0.0417
    182  CZ        42.9260   12.7200   51.7440 C.ar  206  TYR206      0.1957
    183  OH        44.2890   12.7230   51.9080 O.3   206  TYR206     -0.2866
@<TRIPOS>BOND
     1    37    36    2
     2    36    35    1
     3    10     8   ar
     4    10    11   ar
     5    40    39    1
     6    40    41    1
     7    39    38    1
     8     8     6   ar
     9    11     9   ar
    10    35    38    1
    11    35    34    1
    12    42    41    1
    13     1     2    1
    14     6     5    1
    15     6     7   ar
    16     9     7   ar
    17    15    14    2
    18     5     2    1
    19     2     3    1
    20    31    30    2
    21    12     3   am
    22    12    13    1
    23    14    13    1
    24     3     4    2
    25    13    16    1
    26    16    17    1
    27    30    29    1
    28    32    29    1
    29    32    33    1
    30    29    28    1
    31    17    33    1
    32    95    94    2
    33    83    82    2
    34    28    20   am
    35    20    21    2
    36    20    19    1
    37    94    93    1
    38    82    81    1
    39    82    84   am
    40    81    80    1
    41    18    19    1
    42    87    86    2
    43    19    22    1
    44    86    85    1
    45    86    92   am
    46    85    84    1
    47    85    88    1
    48    90    89   ar
    49    93    92    1
    50    93    96    1
    51    80    73   am
    52    96    97    1
    53    25    23   ar
    54    25    27   ar
    55    89    88    1
    56    89    91   ar
    57    22    23    1
    58    74    73    2
    59    23    24   ar
    60    27    26   ar
    61    73    72    1
    62   104   102    1
    63    98    99    1
    64    24    26   ar
    65   101   100    2
    66   102    99    1
    67   102   103    1
    68    99   100    1
    69    68    67    2
    70    72    75    1
    71    72    71    1
    72   100   105   am
    73    75    76    1
    74    67    71   am
    75    67    66    1
    76   105   106    1
    77    76    77    1
    78   106   109    1
    79   106   107    1
    80    65    66    1
    81    65    61   am
    82   108   107    2
    83    63    60    1
    84    63    64    1
    85    66    69    1
    86    50    48    1
    87    69    70    1
    88   109   110    1
    89   178   180   ar
    90   178   177   ar
    91   107   111   am
    92   180   182   ar
    93    60    61    1
    94    60    59    1
    95    77    79   am
    96    77    78    2
    97    61    62    2
    98   176   177    1
    99   176   173    1
   100    46    45    2
   101    70   144    1
   102    49    48    1
   103   174   173    1
   104   174   175    2
   105   177   179   ar
   106    48    47    1
   107    54    53    2
   108   173   172    1
   109   111   112    1
   110    44    45    1
   111    44    47    1
   112    44    43    1
   113   182   183    1
   114   182   181   ar
   115    59    53   am
   116    53    52    1
   117   168   167    2
   118   112   115    1
   119   112   113    1
   120   179   181   ar
   121   172   167   am
   122   144   143    1
   123   115   116    1
   124   167   166    1
   125   117   116   ar
   126   117   119   ar
   127    52    51    1
   128    52    55    1
   129   113   114    2
   130   113   125   am
   131   116   118   ar
   132    57    56   ar
   133   143   140    1
   134   119   120   ar
   135   125   126    1
   136   166   165    1
   137   166   169    1
   138    55    56    1
   139    56    58   ar
   140   165   163   am
   141   162   163    1
   142   162   161    1
   143   169   170    1
   144   169   171    1
   145   163   164    2
   146   118   120   ar
   147   118   121   ar
   148   140   139    1
   149   140   141    1
   150   138   137    2
   151   120   122   ar
   152   128   127    2
   153   126   127    1
   154   137   139   am
   155   137   136    1
   156   121   123   ar
   157   141   142    2
   158   161   156   am
   159   127   129   am
   160   136   135    1
   161   122   124   ar
   162   135   131   am
   163   156   157    2
   164   156   155    1
   165   129   130    1
   166   123   124   ar
   167   131   130    1
   168   131   132    2
   169   130   133    1
   170   155   158    1
   171   155   154    1
   172   148   147    2
   173   158   159    1
   174   133   134    1
   175   154   147   am
   176   154   160    1
   177   147   146    1
   178   159   160    1
   179   149   146    1
   180   149   150    1
   181   146   145    1
   182   151   150    1
   183   151   152    1
   184   152   153    1
