@<TRIPOS>MOLECULE
tmp/1qd0A00.pdb
 143 144 0 0 0
SMALL
GASTEIGER

@<TRIPOS>ATOM
      1  N        -10.2570   32.4490  -15.7720 N.3    31  GLY31      -0.1210
      2  CA       -10.4310   31.0480  -16.1170 C.3    31  GLY31       0.1956
      3  C        -11.4310   30.7300  -17.2140 C.2    31  GLY31       0.2612
      4  O        -11.8870   31.6130  -17.9500 O.2    31  GLY31      -0.2717
      5  N        -11.7560   29.4460  -17.3330 N.am   32  HIS32      -0.1961
      6  CA       -12.7090   28.9890  -18.3370 C.3    32  HIS32       0.1787
      7  C        -14.0440   28.5520  -17.7340 C.2    32  HIS32       0.2621
      8  O        -14.8020   27.8130  -18.3630 O.2    32  HIS32      -0.2715
      9  CB       -12.1100   27.8670  -19.1880 C.3    32  HIS32       0.0785
     10  CG       -11.8440   26.6020  -18.4330 C.ar   32  HIS32       0.0821
     11  ND1      -12.4400   25.3960  -18.7170 N.ar   32  HIS32      -0.2267
     12  CD2      -10.9890   26.3530  -17.4090 C.ar   32  HIS32       0.1154
     13  CE1      -11.9400   24.4710  -17.8900 C.ar   32  HIS32       0.1986
     14  NE2      -11.0520   24.9950  -17.0730 N.ar   32  HIS32      -0.2212
     15  N        -14.3180   29.0090  -16.5160 N.am   33  GLY33      -0.1940
     16  CA       -15.5760   28.6850  -15.8660 C.3    33  GLY33       0.2014
     17  C        -15.4980   27.8290  -14.6130 C.2    33  GLY33       0.2639
     18  O        -16.5110   27.6010  -13.9620 O.2    33  GLY33      -0.2714
     19  N        -14.3040   27.3570  -14.2710 N.am   34  HIS34      -0.1959
     20  CA       -14.1240   26.5010  -13.1060 C.3    34  HIS34       0.1787
     21  C        -13.3590   27.1620  -11.9670 C.2    34  HIS34       0.2620
     22  O        -12.8460   28.2770  -12.0930 O.2    34  HIS34      -0.2715
     23  CB       -13.3830   25.2190  -13.5110 C.3    34  HIS34       0.0785
     24  CG       -14.1220   24.3720  -14.5000 C.ar   34  HIS34       0.0821
     25  ND1      -13.5630   23.3020  -15.1660 N.ar   34  HIS34      -0.2267
     26  CD2      -15.4100   24.4360  -14.9220 C.ar   34  HIS34       0.1154
     27  CE1      -14.5070   22.7650  -15.9530 C.ar   34  HIS34       0.1986
     28  NE2      -15.6490   23.4190  -15.8390 N.ar   34  HIS34      -0.2212
     29  N        -13.3100   26.4690  -10.8380 N.am   35  TYR35      -0.1960
     30  CA       -12.5770   26.9620   -9.6840 C.3    35  TYR35       0.1771
     31  C        -12.3910   25.9120   -8.6210 C.2    35  TYR35       0.2620
     32  O        -13.2400   25.0420   -8.4370 O.2    35  TYR35      -0.2715
     33  CB       -13.2120   28.2350   -9.0870 C.3    35  TYR35       0.0574
     34  CG       -14.6640   28.1240   -8.6690 C.ar   35  TYR35      -0.0198
     35  CD1      -15.6810   28.6210   -9.4850 C.ar   35  TYR35      -0.0009
     36  CD2      -15.0210   27.5630   -7.4440 C.ar   35  TYR35      -0.0009
     37  CE1      -17.0110   28.5680   -9.0910 C.ar   35  TYR35       0.0417
     38  CE2      -16.3510   27.5020   -7.0440 C.ar   35  TYR35       0.0417
     39  CZ       -17.3390   28.0090   -7.8700 C.ar   35  TYR35       0.1957
     40  OH       -18.6600   27.9710   -7.4760 O.3    35  TYR35      -0.2866
     41  N        -11.2220   25.9410   -7.9940 N.am   36  GLY36      -0.1954
     42  CA       -10.9330   25.0200   -6.9110 C.3    36  GLY36       0.1869
     43  C        -11.4050   25.6830   -5.6320 C.2    36  GLY36       0.2309
     44  O        -11.7760   26.8520   -5.6500 O.2    36  GLY36      -0.2863
     45  N         -9.1730   21.5690   -2.4420 N.3    54  ILE54      -0.1231
     46  CA        -9.6200   20.5510   -3.3800 C.3    54  ILE54       0.1692
     47  C         -9.6130   21.0890   -4.8070 C.2    54  ILE54       0.2592
     48  O        -10.0590   22.2060   -5.0500 O.2    54  ILE54      -0.2718
     49  CB       -11.0540   20.0460   -3.0100 C.3    54  ILE54       0.0266
     50  CG1      -11.4370   18.8280   -3.8530 C.3    54  ILE54       0.0019
     51  CG2      -12.0850   21.1430   -3.2080 C.3    54  ILE54       0.0020
     52  CD1      -12.8060   18.2280   -3.4870 C.3    54  ILE54       0.0001
     53  N         -9.0780   20.3050   -5.7400 N.am   55  ARG55      -0.1966
     54  CA        -9.0630   20.6980   -7.1500 C.3    55  ARG55       0.1729
     55  C        -10.5060   20.7500   -7.6370 C.2    55  ARG55       0.2616
     56  O        -11.3820   20.1260   -7.0380 O.2    55  ARG55      -0.2715
     57  CB        -8.2530   19.7050   -7.9970 C.3    55  ARG55       0.0348
     58  CG        -6.7500   19.9370   -7.9460 C.3    55  ARG55       0.0492
     59  CD        -6.0700   19.4840   -9.2300 C.3    55  ARG55       0.2205
     60  NE        -4.6180   19.6760   -9.2290 N.pl3  55  ARG55      -0.0865
     61  CZ        -4.0010   20.8450   -9.3930 C.cat  55  ARG55       0.5346
     62  NH1       -4.6980   21.9570   -9.5680 N.pl3  55  ARG55       0.1354
     63  NH2       -2.6820   20.9030   -9.3730 N.pl3  55  ARG55       0.1354
     64  N        -10.7610   21.4740   -8.7230 N.am   56  TRP56      -0.1960
     65  CA       -12.1280   21.5860   -9.2340 C.3    56  TRP56       0.1771
     66  C        -12.8100   20.2300   -9.4660 C.2    56  TRP56       0.2620
     67  O        -14.0120   20.0820   -9.2210 O.2    56  TRP56      -0.2715
     68  CB       -12.1810   22.4230  -10.5290 C.3    56  TRP56       0.0590
     69  CG       -13.4810   22.2470  -11.2960 C.ar   56  TRP56       0.0006
     70  CD1      -14.6650   22.9070  -11.0800 C.ar   56  TRP56       0.0946
     71  CD2      -13.7480   21.2790  -12.3210 C.ar   56  TRP56       0.0152
     72  NE1      -15.6490   22.4010  -11.8930 N.ar   56  TRP56      -0.2442
     73  CE2      -15.1150   21.4000  -12.6650 C.ar   56  TRP56       0.0810
     74  CE3      -12.9680   20.3190  -12.9800 C.ar   56  TRP56       0.0012
     75  CZ2      -15.7210   20.5900  -13.6390 C.ar   56  TRP56       0.0191
     76  CZ3      -13.5750   19.5120  -13.9520 C.ar   56  TRP56       0.0001
     77  CH2      -14.9350   19.6550  -14.2650 C.ar   56  TRP56       0.0015
     78  N        -12.0480   19.2610   -9.9690 N.am   57  SER57      -0.1950
     79  CA       -12.5750   17.9350  -10.2750 C.3    57  SER57       0.1924
     80  C        -12.7290   17.0030   -9.0840 C.2    57  SER57       0.2314
     81  O        -13.5290   16.0720   -9.1300 O.2    57  SER57      -0.2863
     82  CB       -11.6930   17.2600  -11.3170 C.3    57  SER57       0.2116
     83  OG       -10.3900   17.0370  -10.7970 O.3    57  SER57      -0.2180
     84  N        -10.1430   15.2810   -7.9580 N.3    59  LYS59      -0.1245
     85  CA        -9.1210   14.2480   -8.1350 C.3    59  LYS59       0.1561
     86  C         -8.0600   14.2520   -7.0340 C.2    59  LYS59       0.2260
     87  O         -7.4390   13.2270   -6.7550 O.2    59  LYS59      -0.2867
     88  CB        -8.4630   14.3660   -9.5120 C.3    59  LYS59       0.0271
     89  CG        -9.3880   14.0060  -10.6640 C.3    59  LYS59       0.0035
     90  CD        -8.6560   14.1090  -12.0020 C.3    59  LYS59       0.0206
     91  CE        -9.5640   13.8080  -13.1840 C.3    59  LYS59       0.1093
     92  NZ        -8.8680   14.0780  -14.4780 N.3    59  LYS59      -0.1314
     93  N        -10.7280   29.6240   -6.1080 N.3   102  ARG102     -0.1231
     94  CA        -9.5690   29.8670   -6.9730 C.3   102  ARG102      0.1679
     95  C         -9.9940   29.6730   -8.4320 C.2   102  ARG102      0.2434
     96  O        -10.1350   28.5490   -8.8950 O.2   102  ARG102     -0.2733
     97  CB        -8.4660   28.8770   -6.6100 C.3   102  ARG102      0.0321
     98  CG        -7.1190   29.1560   -7.2140 C.3   102  ARG102      0.0489
     99  CD        -6.1370   28.0790   -6.7860 C.3   102  ARG102      0.2205
    100  NE        -6.2140   27.7750   -5.3680 N.pl3 102  ARG102     -0.0865
    101  CZ        -5.3580   27.0020   -4.7050 C.cat 102  ARG102      0.5346
    102  NH1       -4.0510   27.2050   -4.7920 N.pl3 102  ARG102      0.1354
    103  NH2       -5.8140   25.9870   -3.9920 N.pl3 102  ARG102      0.1354
    104  N        -10.1850   30.7720   -9.1760 N.am  103  PRO103     -0.2718
    105  CA       -10.6040   30.7810  -10.5850 C.3   103  PRO103      0.1535
    106  C         -9.6420   30.2530  -11.6600 C.2   103  PRO103      0.2598
    107  O        -10.0910   29.8480  -12.7250 O.2   103  PRO103     -0.2715
    108  CB       -10.9260   32.2550  -10.8330 C.3   103  PRO103      0.0310
    109  CG       -11.2430   32.7890   -9.4850 C.3   103  PRO103      0.0237
    110  CD       -10.1880   32.1400   -8.6390 C.3   103  PRO103      0.0939
    111  N         -8.3380   30.2720  -11.3950 N.am  104  VAL104     -0.1964
    112  CA        -7.3450   29.8270  -12.3730 C.3   104  VAL104      0.1727
    113  C         -6.5180   28.6810  -11.8180 C.2   104  VAL104      0.2616
    114  O         -6.0520   28.7380  -10.6770 O.2   104  VAL104     -0.2715
    115  CB        -6.4030   30.9970  -12.8080 C.3   104  VAL104      0.0290
    116  CG1       -5.3940   30.5170  -13.8380 C.3   104  VAL104      0.0023
    117  CG2       -7.2130   32.1390  -13.3970 C.3   104  VAL104      0.0023
    118  N         -6.3340   27.6440  -12.6360 N.am  105  ARG105     -0.1963
    119  CA        -5.5970   26.4570  -12.2230 C.3   105  ARG105      0.1729
    120  C         -4.1480   26.7100  -11.8320 C.2   105  ARG105      0.2616
    121  O         -3.4160   27.4370  -12.5000 O.2   105  ARG105     -0.2715
    122  CB        -5.6530   25.3660  -13.2970 C.3   105  ARG105      0.0348
    123  CG        -5.4940   23.9740  -12.6980 C.3   105  ARG105      0.0492
    124  CD        -4.8730   22.9730  -13.6370 C.3   105  ARG105      0.2205
    125  NE        -4.9650   21.6270  -13.0900 N.pl3 105  ARG105     -0.0865
    126  CZ        -3.9490   20.7840  -12.9870 C.cat 105  ARG105      0.5346
    127  NH1       -2.7050   21.2320  -12.9440 N.pl3 105  ARG105      0.1354
    128  NH2       -4.1820   19.4870  -12.9090 N.pl3 105  ARG105      0.1354
    129  N         -3.7430   26.0650  -10.7460 N.am  106  VAL106     -0.1977
    130  CA        -2.3880   26.1650  -10.2280 C.3   106  VAL106      0.1596
    131  C         -1.7510   24.7660  -10.2300 C.2   106  VAL106      0.2287
    132  O         -2.4430   23.7590  -10.0730 O.2   106  VAL106     -0.2864
    133  CB        -2.4040   26.7730   -8.8070 C.3   106  VAL106      0.0276
    134  CG1       -3.0310   25.8110   -7.8230 C.3   106  VAL106      0.0022
    135  CG2       -0.9990   27.1650   -8.3760 C.3   106  VAL106      0.0022
    136  N         -1.5370   22.6520   -5.4120 N.3   109  ILE109     -0.1245
    137  CA        -2.6850   23.2590   -4.7160 C.3   109  ILE109      0.1561
    138  C         -2.3920   23.5520   -3.2080 C.2   109  ILE109      0.2260
    139  O         -3.2270   24.1500   -2.5240 O.2   109  ILE109     -0.2867
    140  CB        -3.9100   22.3500   -4.7790 C.3   109  ILE109      0.0252
    141  CG1       -3.5750   20.8780   -4.5120 C.3   109  ILE109      0.0019
    142  CG2       -4.5990   22.4050   -6.1480 C.3   109  ILE109      0.0019
    143  CD1       -4.8160   19.9970   -4.3570 C.3   109  ILE109      0.0001
@<TRIPOS>BOND
     1     9    10    1
     2     9     6    1
     3    11    10   ar
     4    11    13   ar
     5    10    12   ar
     6     8     7    2
     7     6     7    1
     8     6     5    1
     9     4     3    2
    10    13    14   ar
    11     7    15   am
    12    12    14   ar
    13     5     3   am
    14     3     2    1
    15    15    16    1
    16     2     1    1
    17    27    28   ar
    18    27    25   ar
    19    16    17    1
    20    28    26   ar
    21    25    24   ar
    22    26    24   ar
    23    17    19   am
    24    17    18    2
    25    24    23    1
    26    92    91    1
    27    19    20    1
    28    77    76   ar
    29    77    75   ar
    30    76    74   ar
    31   116   115    1
    32    75    73   ar
    33   124   125    1
    34   124   123    1
    35    23    20    1
    36   117   115    1
    37   122   123    1
    38   122   119    1
    39    91    90    1
    40    20    21    1
    41   125   126    2
    42   126   127    1
    43   126   128    1
    44    74    71   ar
    45   115   112    1
    46   107   106    2
    47    73    71   ar
    48    73    72   ar
    49   118   119    1
    50   118   113   am
    51   121   120    2
    52   112   113    1
    53   112   111    1
    54    71    69   ar
    55   119   120    1
    56    22    21    2
    57    90    89    1
    58    21    29   am
    59    72    70   ar
    60   120   129   am
    61   113   114    2
    62   106   111   am
    63   106   105    1
    64    82    83    1
    65    82    79    1
    66    69    70   ar
    67    69    68    1
    68    29    30    1
    69   108   105    1
    70   108   109    1
    71   129   130    1
    72    89    88    1
    73   105   104    1
    74    68    65    1
    75    79    78    1
    76    79    80    1
    77   131   130    1
    78   131   132    2
    79   130   133    1
    80    78    66   am
    81    30    33    1
    82    30    31    1
    83    62    61    1
    84    88    85    1
    85   109   110    1
    86    35    37   ar
    87    35    34   ar
    88    66    65    1
    89    66    67    2
    90    61    63    1
    91    61    60    2
    92    65    64    1
    93    59    60    1
    94    59    58    1
    95   104   110    1
    96   104    95   am
    97    81    80    2
    98    37    39   ar
    99    33    34    1
   100    96    95    2
   101   133   135    1
   102   133   134    1
   103    64    55   am
   104    34    36   ar
   105    31    32    2
   106    31    41   am
   107    95    94    1
   108    85    84    1
   109    85    86    1
   110    57    58    1
   111    57    54    1
   112    41    42    1
   113    39    40    1
   114    39    38   ar
   115    55    54    1
   116    55    56    2
   117    36    38   ar
   118    98    99    1
   119    98    97    1
   120    54    53    1
   121    86    87    2
   122    94    97    1
   123    94    93    1
   124    42    43    1
   125    99   100    1
   126   142   140    1
   127    53    47   am
   128    44    43    2
   129   136   137    1
   130   100   101    2
   131    48    47    2
   132    47    46    1
   133   102   101    1
   134   140   137    1
   135   140   141    1
   136   137   138    1
   137   101   103    1
   138   141   143    1
   139    50    52    1
   140    50    49    1
   141    46    49    1
   142    46    45    1
   143    51    49    1
   144   138   139    2
