@<TRIPOS>MOLECULE
tmp/1qd6C02.pdb
 123 121 0 0 0
SMALL
GASTEIGER

@<TRIPOS>ATOM
      1  N         -2.2410   14.1910   31.9940 N.3     9  ASN9       -0.1225
      2  CA        -1.5170   14.5180   30.7750 C.3     9  ASN9        0.1785
      3  C         -1.1610   15.9900   30.8190 C.2     9  ASN9        0.2597
      4  O         -2.0490   16.8470   30.8850 O.2     9  ASN9       -0.2718
      5  CB        -2.3760   14.2220   29.5500 C.3     9  ASN9        0.1169
      6  CG        -2.5770   12.7410   29.3370 C.2     9  ASN9        0.2627
      7  OD1       -1.7930   12.1020   28.6370 O.2     9  ASN9       -0.2716
      8  ND2       -3.6140   12.1770   29.9640 N.am    9  ASN9       -0.0877
      9  N          0.1380   16.2840   30.8040 N.am   10  TYR10      -0.1962
     10  CA         0.5950   17.6650   30.9290 C.3    10  TYR10       0.1771
     11  C          1.9210   17.9430   30.2390 C.2    10  TYR10       0.2619
     12  O          2.6870   17.0300   29.9560 O.2    10  TYR10      -0.2715
     13  CB         0.6840   18.0790   32.4070 C.3    10  TYR10       0.0574
     14  CG         1.7070   17.3240   33.2510 C.ar   10  TYR10      -0.0198
     15  CD1        3.0540   17.7030   33.2680 C.ar   10  TYR10      -0.0009
     16  CD2        1.3170   16.2520   34.0500 C.ar   10  TYR10      -0.0009
     17  CE1        3.9810   17.0360   34.0580 C.ar   10  TYR10       0.0417
     18  CE2        2.2340   15.5790   34.8470 C.ar   10  TYR10       0.0417
     19  CZ         3.5660   15.9780   34.8470 C.ar   10  TYR10       0.1957
     20  OH         4.4740   15.3230   35.6460 O.3    10  TYR10      -0.2866
     21  N          2.1830   19.2250   30.0130 N.am   11  LEU11      -0.1977
     22  CA         3.4290   19.7110   29.4440 C.3    11  LEU11       0.1596
     23  C          3.7820   20.9760   30.2390 C.2    11  LEU11       0.2287
     24  O          3.0300   21.9540   30.2390 O.2    11  LEU11      -0.2864
     25  CB         3.2190   20.0580   27.9720 C.3    11  LEU11       0.0297
     26  CG         4.3400   20.6940   27.1450 C.3    11  LEU11       0.0022
     27  CD1        5.5530   19.7970   27.0930 C.3    11  LEU11       0.0001
     28  CD2        3.8130   20.9540   25.7410 C.3    11  LEU11       0.0001
     29  N          7.1150   16.5390   30.4820 N.3    40  PHE40      -0.1227
     30  CA         5.7770   16.1990   30.0480 C.3    40  PHE40       0.1736
     31  C          5.4550   14.7540   30.3310 C.2    40  PHE40       0.2595
     32  O          6.3420   13.9040   30.4160 O.2    40  PHE40      -0.2718
     33  CB         5.5380   16.5540   28.5740 C.3    40  PHE40       0.0547
     34  CG         6.3140   15.7100   27.5880 C.ar   40  PHE40      -0.0202
     35  CD1        5.7590   14.5460   27.0630 C.ar   40  PHE40      -0.0042
     36  CD2        7.5720   16.1070   27.1470 C.ar   40  PHE40      -0.0042
     37  CE1        6.4430   13.7840   26.1060 C.ar   40  PHE40      -0.0003
     38  CE2        8.2620   15.3540   26.1930 C.ar   40  PHE40      -0.0003
     39  CZ         7.6940   14.1880   25.6710 C.ar   40  PHE40      -0.0000
     40  N          4.1710   14.5080   30.5330 N.am   41  GLN41      -0.1965
     41  CA         3.6710   13.1900   30.8340 C.3    41  GLN41       0.1733
     42  C          2.4940   12.9170   29.9180 C.2    41  GLN41       0.2616
     43  O          1.6620   13.7970   29.6750 O.2    41  GLN41      -0.2715
     44  CB         3.2290   13.1120   32.3020 C.3    41  GLN41       0.0408
     45  CG         2.6610   11.7490   32.7060 C.3    41  GLN41       0.0908
     46  CD         2.2970   11.6910   34.1610 C.2    41  GLN41       0.2608
     47  OE1        3.1250   11.3270   35.0070 O.2    41  GLN41      -0.2717
     48  NE2        1.0580   12.0520   34.4770 N.am   41  GLN41      -0.0878
     49  N          2.4820   11.7080   29.3650 N.am   42  LEU42      -0.1977
     50  CA         1.3800   11.2040   28.5690 C.3    42  LEU42       0.1596
     51  C          0.9340    9.9650   29.3150 C.2    42  LEU42       0.2287
     52  O          1.7700    9.1580   29.7390 O.2    42  LEU42      -0.2864
     53  CB         1.8720   10.8020   27.1850 C.3    42  LEU42       0.0297
     54  CG         2.8390   11.8120   26.5820 C.3    42  LEU42       0.0022
     55  CD1        3.6040   11.2040   25.4270 C.3    42  LEU42       0.0001
     56  CD2        2.0600   13.0590   26.1840 C.3    42  LEU42       0.0001
     57  N         13.2990   16.9750   28.8540 N.3    69  TRP69      -0.1241
     58  CA        13.9030   17.4160   27.6060 C.3    69  TRP69       0.1605
     59  C         14.6850   18.7140   27.7840 C.2    69  TRP69       0.2264
     60  O         14.1180   19.7410   28.1600 O.2    69  TRP69      -0.2867
     61  CB        12.7780   17.5970   26.5860 C.3    69  TRP69       0.0550
     62  CG        13.1510   18.1920   25.2730 C.ar   69  TRP69       0.0003
     63  CD1       14.3640   18.1070   24.6200 C.ar   69  TRP69       0.0946
     64  CD2       12.2910   18.9390   24.4170 C.ar   69  TRP69       0.0152
     65  NE1       14.2970   18.7650   23.4180 N.ar   69  TRP69      -0.2442
     66  CE2       13.0380   19.2870   23.2690 C.ar   69  TRP69       0.0810
     67  CE3       10.9560   19.3520   24.5100 C.ar   69  TRP69       0.0012
     68  CZ2       12.4940   20.0340   22.2210 C.ar   69  TRP69       0.0191
     69  CZ3       10.4150   20.0930   23.4700 C.ar   69  TRP69       0.0001
     70  CH2       11.1840   20.4280   22.3400 C.ar   69  TRP69       0.0015
     71  N         22.4980   20.2520   21.0760 N.3    77  SER77      -0.1202
     72  CA        21.3820   19.7700   20.2590 C.3    77  SER77       0.2020
     73  C         20.1560   19.3300   21.0690 C.2    77  SER77       0.2619
     74  O         19.5130   18.3470   20.7270 O.2    77  SER77      -0.2717
     75  CB        21.8450   18.6350   19.3410 C.3    77  SER77       0.2103
     76  OG        22.9000   19.0800   18.5110 O.3    77  SER77      -0.2182
     77  N         19.8780   20.0450   22.1610 N.am   78  SER78      -0.1951
     78  CA        18.6800   19.8570   22.9960 C.3    78  SER78       0.1924
     79  C         18.2500   18.4000   23.1480 C.2    78  SER78       0.2314
     80  O         17.1570   18.0290   22.7340 O.2    78  SER78      -0.2863
     81  CB        17.5150   20.6660   22.4150 C.3    78  SER78       0.2116
     82  OG        17.8790   22.0210   22.2040 O.3    78  SER78      -0.2180
     83  N         17.0430   14.7440   24.9290 N.3    80  PHE80      -0.1241
     84  CA        16.2610   14.2520   26.0570 C.3    80  PHE80       0.1605
     85  C         17.2280   13.7200   27.1120 C.2    80  PHE80       0.2264
     86  O         18.1320   12.9460   26.8040 O.2    80  PHE80      -0.2867
     87  CB        15.3140   13.1390   25.6190 C.3    80  PHE80       0.0534
     88  CG        13.9870   13.6330   25.1440 C.ar   80  PHE80      -0.0203
     89  CD1       13.8950   14.5400   24.0970 C.ar   80  PHE80      -0.0042
     90  CD2       12.8190   13.1890   25.7430 C.ar   80  PHE80      -0.0042
     91  CE1       12.6560   14.9920   23.6620 C.ar   80  PHE80      -0.0003
     92  CE2       11.5750   13.6410   25.3070 C.ar   80  PHE80      -0.0003
     93  CZ        11.4970   14.5400   24.2670 C.ar   80  PHE80      -0.0000
     94  N         -8.4260   22.2640   28.2900 N.3   206  VAL206     -0.1245
     95  CA        -7.0760   22.7100   28.6330 C.3   206  VAL206      0.1561
     96  C         -7.0440   23.4120   29.9890 C.2   206  VAL206      0.2260
     97  O         -7.9390   24.1930   30.3240 O.2   206  VAL206     -0.2867
     98  CB        -6.4680   23.6560   27.5590 C.3   206  VAL206      0.0252
     99  CG1       -4.9450   23.7110   27.7140 C.3   206  VAL206      0.0019
    100  CG2       -6.8550   23.2100   26.1650 C.3   206  VAL206      0.0019
    101  N          0.7740   23.5950   30.8100 N.3   234  VAL234     -0.1231
    102  CA        -0.6090   23.2170   30.5360 C.3   234  VAL234      0.1692
    103  C         -0.9240   21.7610   30.8590 C.2   234  VAL234      0.2592
    104  O         -0.0350   20.9170   30.9680 O.2   234  VAL234     -0.2718
    105  CB        -0.9930   23.5000   29.0750 C.3   234  VAL234      0.0266
    106  CG1       -1.2410   25.0030   28.8850 C.3   234  VAL234      0.0020
    107  CG2        0.1120   23.0060   28.1290 C.3   234  VAL234      0.0020
    108  N         -2.2090   21.4650   30.9730 N.am  235  MET235     -0.1965
    109  CA        -2.6630   20.1360   31.3630 C.3   235  MET235      0.1736
    110  C         -3.9790   19.8370   30.6600 C.2   235  MET235      0.2616
    111  O         -4.7590   20.7450   30.3660 O.2   235  MET235     -0.2715
    112  CB        -2.8390   20.0910   32.8800 C.3   235  MET235      0.0427
    113  CG        -3.5550   18.8840   33.4250 C.3   235  MET235      0.0599
    114  SD        -3.6490   18.9900   35.2110 S.3   235  MET235     -0.1393
    115  CE        -2.1970   18.0680   35.6550 C.3   235  MET235      0.0692
    116  N         -4.2070   18.5720   30.3420 N.am  236  LEU236     -0.1977
    117  CA        -5.4510   18.1950   29.6900 C.3   236  LEU236      0.1596
    118  C         -6.4400   17.7830   30.7590 C.2   236  LEU236      0.2287
    119  O         -7.4620   18.4280   30.9520 O.2   236  LEU236     -0.2864
    120  CB        -5.2270   17.0330   28.7280 C.3   236  LEU236      0.0297
    121  CG        -4.2270   17.2670   27.5980 C.3   236  LEU236      0.0022
    122  CD1       -4.1640   16.0080   26.7480 C.3   236  LEU236      0.0001
    123  CD2       -4.6460   18.4690   26.7470 C.3   236  LEU236      0.0001
@<TRIPOS>BOND
     1    76    75    1
     2    75    72    1
     3    72    73    1
     4    72    71    1
     5    74    73    2
     6    73    77   am
     7    77    78    1
     8    82    81    1
     9    68    70   ar
    10    68    66   ar
    11    70    69   ar
    12    81    78    1
    13    80    79    2
    14    78    79    1
    15    66    65   ar
    16    66    64   ar
    17    65    63   ar
    18    69    67   ar
    19    91    89   ar
    20    91    93   ar
    21    89    88   ar
    22    93    92   ar
    23    64    67   ar
    24    64    62   ar
    25    63    62   ar
    26    83    84    1
    27    88    87    1
    28    88    90   ar
    29    62    61    1
    30    92    90   ar
    31    55    54    1
    32    87    84    1
    33    39    37   ar
    34    39    38   ar
    35    28    26    1
    36    84    85    1
    37    37    35   ar
    38   100    98    1
    39    56    54    1
    40    38    36   ar
    41    54    53    1
    42    61    58    1
    43   123   121    1
    44   122   121    1
    45    86    85    2
    46    35    34   ar
    47    27    26    1
    48    26    25    1
    49    36    34   ar
    50    53    50    1
    51    98    99    1
    52    98    95    1
    53    34    33    1
    54   121   120    1
    55    58    59    1
    56    58    57    1
    57    59    60    2
    58    25    22    1
    59   107   105    1
    60    94    95    1
    61    50    51    1
    62    50    49    1
    63    33    30    1
    64    95    96    1
    65     7     6    2
    66   120   117    1
    67   106   105    1
    68   105   102    1
    69    51    52    2
    70     6     5    1
    71     6     8   am
    72    49    42   am
    73    22    21    1
    74    22    23    1
    75     5     2    1
    76    43    42    2
    77   117   116    1
    78   117   118    1
    79    42    41    1
    80    12    11    2
    81    96    97    2
    82    21    11   am
    83    30    31    1
    84    30    29    1
    85    11    10    1
    86    23    24    2
    87    31    32    2
    88    31    40   am
    89   116   110   am
    90   111   110    2
    91    40    41    1
    92   102   101    1
    93   102   103    1
    94   110   109    1
    95   118   119    2
    96     2     3    1
    97     2     1    1
    98     9     3   am
    99     9    10    1
   100     3     4    2
   101    41    44    1
   102   103   104    2
   103   103   108   am
   104    10    13    1
   105   108   109    1
   106   109   112    1
   107    44    45    1
   108    13    14    1
   109    45    46    1
   110   112   113    1
   111    14    15   ar
   112    14    16   ar
   113    15    17   ar
   114   113   114    1
   115    16    18   ar
   116    17    19   ar
   117    46    48   am
   118    46    47    2
   119    19    18   ar
   120    19    20    1
   121   114   115    1
