@<TRIPOS>MOLECULE
tmp/1qd6C01.pdb
 83 78 0 0 0
SMALL
GASTEIGER

@<TRIPOS>ATOM
      1  N         -2.2340    7.0050   29.0320 N.3    44  LEU44      -0.1245
      2  CA        -3.4350    6.4580   28.4100 C.3    44  LEU44       0.1561
      3  C         -3.9030    5.1750   29.0780 C.2    44  LEU44       0.2260
      4  O         -3.1050    4.4110   29.6180 O.2    44  LEU44      -0.2867
      5  CB        -3.1930    6.1870   26.9280 C.3    44  LEU44       0.0270
      6  CG        -2.9490    7.3710   25.9880 C.3    44  LEU44       0.0019
      7  CD1       -2.8840    6.8740   24.5430 C.3    44  LEU44       0.0001
      8  CD2       -4.0690    8.3800   26.1230 C.3    44  LEU44       0.0001
      9  N         -6.3000    1.6780   28.3180 N.3    46  PHE46      -0.1241
     10  CA        -6.8690    0.9010   27.2320 C.3    46  PHE46       0.1605
     11  C         -7.7420   -0.2460   27.7430 C.2    46  PHE46       0.2264
     12  O         -7.2280   -1.2790   28.1690 O.2    46  PHE46      -0.2867
     13  CB        -5.7540    0.3190   26.3330 C.3    46  PHE46       0.0534
     14  CG        -4.5970    1.2520   26.1180 C.ar   46  PHE46      -0.0203
     15  CD1       -3.3880    1.0360   26.7710 C.ar   46  PHE46      -0.0042
     16  CD2       -4.7170    2.3610   25.2900 C.ar   46  PHE46      -0.0042
     17  CE1       -2.3210    1.9080   26.6050 C.ar   46  PHE46      -0.0003
     18  CE2       -3.6510    3.2410   25.1150 C.ar   46  PHE46      -0.0003
     19  CZ        -2.4530    3.0120   25.7750 C.ar   46  PHE46      -0.0000
     20  N         -9.6020   -3.5200   27.6210 N.3    48  LEU48      -0.1245
     21  CA        -9.4220   -4.6620   26.7400 C.3    48  LEU48       0.1561
     22  C        -10.6050   -5.6090   26.8640 C.2    48  LEU48       0.2260
     23  O        -11.0440   -6.1890   25.8710 O.2    48  LEU48      -0.2867
     24  CB        -8.1090   -5.3890   27.0710 C.3    48  LEU48       0.0270
     25  CG        -6.8140   -4.5600   27.0290 C.3    48  LEU48       0.0019
     26  CD1       -5.7380   -5.2670   27.8510 C.3    48  LEU48       0.0001
     27  CD2       -6.3450   -4.2960   25.5920 C.3    48  LEU48       0.0001
     28  N         -5.3120   -2.0580   30.3300 N.3    61  ALA61      -0.1245
     29  CA        -3.8970   -1.7490   30.2220 C.3    61  ALA61       0.1562
     30  C         -3.7550   -0.2350   30.2730 C.2    61  ALA61       0.2260
     31  O         -4.7210    0.5010   30.0540 O.2    61  ALA61      -0.2867
     32  CB        -3.3380   -2.2870   28.9270 C.3    61  ALA61       0.0290
     33  N         -0.5720    3.1360   29.9820 N.3    63  TYR63      -0.1241
     34  CA         0.7840    3.4660   29.5970 C.3    63  TYR63       0.1605
     35  C          1.0360    4.8860   29.9840 C.2    63  TYR63       0.2264
     36  O          0.3530    5.7940   29.5030 O.2    63  TYR63      -0.2867
     37  CB         1.0100    3.2920   28.0900 C.3    63  TYR63       0.0534
     38  CG         2.3630    3.8080   27.6460 C.ar   63  TYR63      -0.0201
     39  CD1        3.5420    3.1670   28.0470 C.ar   63  TYR63      -0.0009
     40  CD2        2.4710    4.9520   26.8570 C.ar   63  TYR63      -0.0009
     41  CE1        4.7890    3.6530   27.6730 C.ar   63  TYR63       0.0417
     42  CE2        3.7220    5.4480   26.4740 C.ar   63  TYR63       0.0417
     43  CZ         4.8700    4.7890   26.8850 C.ar   63  TYR63       0.1957
     44  OH         6.0910    5.2510   26.4740 O.3    63  TYR63      -0.2866
     45  N          9.2460    4.9680   30.9430 N.3    85  TYR85      -0.1241
     46  CA         8.1540    4.2690   30.2670 C.3    85  TYR85       0.1605
     47  C          7.4840    3.3210   31.2550 C.2    85  TYR85       0.2264
     48  O          8.1160    2.3920   31.7630 O.2    85  TYR85      -0.2867
     49  CB         8.6970    3.4690   29.0860 C.3    85  TYR85       0.0534
     50  CG         9.6410    4.2590   28.2070 C.ar   85  TYR85      -0.0201
     51  CD1       10.9910    4.3680   28.5290 C.ar   85  TYR85      -0.0009
     52  CD2        9.1870    4.8850   27.0500 C.ar   85  TYR85      -0.0009
     53  CE1       11.8600    5.0710   27.7240 C.ar   85  TYR85       0.0417
     54  CE2       10.0480    5.5930   26.2400 C.ar   85  TYR85       0.0417
     55  CZ        11.3850    5.6830   26.5830 C.ar   85  TYR85       0.1957
     56  OH        12.2450    6.4060   25.7940 O.3    85  TYR85      -0.2866
     57  N          4.3470    0.9110   31.4210 N.3    87  PRO87      -0.2116
     58  CA         3.1810    0.1350   30.9800 C.3    87  PRO87       0.1372
     59  C          2.6040   -0.6890   32.1390 C.2    87  PRO87       0.2244
     60  O          3.3430   -1.0660   33.0580 O.2    87  PRO87      -0.2868
     61  CB         3.7770   -0.7640   29.8920 C.3    87  PRO87       0.0268
     62  CG         5.1460   -1.0460   30.4210 C.3    87  PRO87       0.0207
     63  CD         5.5940    0.3170   30.8990 C.3    87  PRO87       0.0892
     64  N          5.5060   -2.3090   34.9360 N.3   113  HIS113     -0.1241
     65  CA         6.9200   -2.2320   34.5800 C.3   113  HIS113      0.1621
     66  C          7.2850   -0.7600   34.4330 C.2   113  HIS113      0.2264
     67  O          6.5750    0.0020   33.7920 O.2   113  HIS113     -0.2867
     68  CB         7.2270   -2.9540   33.2590 C.3   113  HIS113      0.0745
     69  CG         8.6770   -2.9200   32.8850 C.ar  113  HIS113      0.0817
     70  ND1        9.6300   -3.6850   33.5260 N.ar  113  HIS113     -0.2268
     71  CD2        9.3430   -2.1940   31.9540 C.ar  113  HIS113      0.1154
     72  CE1       10.8190   -3.4340   33.0050 C.ar  113  HIS113      0.1986
     73  NE2       10.6720   -2.5340   32.0490 N.ar  113  HIS113     -0.2212
     74  N         10.7040    1.5030   33.4090 N.3   115  SER115     -0.1217
     75  CA        12.0830    1.5020   32.9010 C.3   115  SER115      0.1889
     76  C         12.3520    2.7900   32.1260 C.2   115  SER115      0.2288
     77  O         11.4300    3.5630   31.8550 O.2   115  SER115     -0.2866
     78  CB        12.3330    0.2950   31.9840 C.3   115  SER115      0.2089
     79  OG        11.5530    0.3910   30.8310 O.3   115  SER115     -0.2183
     80  N         14.5690    2.7940   29.2000 N.3   117  GLY117     -0.1225
     81  CA        14.9560    2.4810   27.8340 C.3   117  GLY117      0.1811
     82  C         16.4060    2.7180   27.4630 C.2   117  GLY117      0.2280
     83  O         16.7270    2.8510   26.2840 O.2   117  GLY117     -0.2866
@<TRIPOS>BOND
     1     7     6    1
     2    18    16   ar
     3    18    19   ar
     4    16    14   ar
     5    27    25    1
     6    19    17   ar
     7    56    55    1
     8    23    22    2
     9     6     8    1
    10     6     5    1
    11    14    13    1
    12    14    15   ar
    13    54    55   ar
    14    54    52   ar
    15    83    82    2
    16    13    10    1
    17    44    43    1
    18    42    40   ar
    19    42    43   ar
    20    55    53   ar
    21    17    15   ar
    22    21    22    1
    23    21    24    1
    24    21    20    1
    25    40    38   ar
    26    43    41   ar
    27     5     2    1
    28    25    24    1
    29    25    26    1
    30    52    50   ar
    31    10    11    1
    32    10     9    1
    33    82    81    1
    34    38    39   ar
    35    38    37    1
    36    41    39   ar
    37    53    51   ar
    38    11    12    2
    39    81    80    1
    40    37    34    1
    41    50    51   ar
    42    50    49    1
    43     2     1    1
    44     2     3    1
    45    32    29    1
    46     3     4    2
    47    49    46    1
    48    36    35    2
    49    34    33    1
    50    34    35    1
    51    61    62    1
    52    61    58    1
    53    31    30    2
    54    29    30    1
    55    29    28    1
    56    46    45    1
    57    46    47    1
    58    62    63    1
    59    79    78    1
    60    63    57    1
    61    58    57    1
    62    58    59    1
    63    47    48    2
    64    77    76    2
    65    71    73   ar
    66    71    69   ar
    67    78    75    1
    68    73    72   ar
    69    76    75    1
    70    59    60    2
    71    69    68    1
    72    69    70   ar
    73    75    74    1
    74    72    70   ar
    75    68    65    1
    76    67    66    2
    77    66    65    1
    78    65    64    1
