@<TRIPOS>MOLECULE
tmp/1qdbB04.pdb
 224 222 0 0 0
SMALL
GASTEIGER

@<TRIPOS>ATOM
      1  N        -12.4160   37.2960   80.7560 N.3    56  SER56      -0.1203
      2  CA       -11.6840   36.1050   80.3540 C.3    56  SER56       0.2005
      3  C        -12.7020   34.9550   80.3790 C.2    56  SER56       0.2460
      4  O        -13.7610   35.0680   81.0020 O.2    56  SER56      -0.2732
      5  CB       -10.5420   35.8280   81.3380 C.3    56  SER56       0.2103
      6  OG       -11.0460   35.5490   82.6330 O.3    56  SER56      -0.2182
      7  N        -12.3950   33.8310   79.7170 N.am   57  PRO57      -0.2728
      8  CA       -13.3570   32.7280   79.7300 C.3    57  PRO57       0.1401
      9  C        -13.4190   32.0300   81.0740 C.2    57  PRO57       0.2269
     10  O        -12.4700   32.0930   81.8590 O.2    57  PRO57      -0.2865
     11  CB       -12.7800   31.7400   78.7040 C.3    57  PRO57       0.0296
     12  CG       -11.6350   32.4570   78.0390 C.3    57  PRO57       0.0237
     13  CD       -11.1550   33.4540   79.0180 C.3    57  PRO57       0.0939
     14  N         -9.4860   17.5520   68.0050 N.3   166  THR166     -0.1218
     15  CA        -9.1520   18.9710   68.0360 C.3   166  THR166      0.1862
     16  C        -10.3050   19.7300   67.3670 C.2   166  THR166      0.2287
     17  O        -10.7410   20.7680   67.8650 O.2   166  THR166     -0.2866
     18  CB        -7.8120   19.2790   67.2920 C.3   166  THR166      0.1770
     19  OG1       -6.7080   18.9930   68.1530 O.3   166  THR166     -0.2211
     20  CG2       -7.7210   20.7510   66.8830 C.3   166  THR166      0.0375
     21  N        -13.4000   21.1180   69.0810 N.3   169  CYS169     -0.1221
     22  CA       -13.1240   22.3370   69.8490 C.3   169  CYS169      0.1808
     23  C        -13.0680   23.5060   68.8620 C.2   169  CYS169      0.2601
     24  O        -13.5200   24.6170   69.1570 O.2   169  CYS169     -0.2717
     25  CB       -11.7740   22.2530   70.5500 C.3   169  CYS169      0.0970
     26  SG       -11.5740   20.7610   71.5550 S.3   169  CYS169     -0.0800
     27  N        -12.4910   23.2450   67.6950 N.am  170  ALA170     -0.1979
     28  CA       -12.3600   24.2740   66.6580 C.3   170  ALA170      0.1597
     29  C        -13.7000   24.7490   66.1100 C.2   170  ALA170      0.2287
     30  O        -13.7760   25.8040   65.4660 O.2   170  ALA170     -0.2864
     31  CB       -11.4750   23.7760   65.5400 C.3   170  ALA170      0.0319
     32  N        -13.7680   27.5410   69.0710 N.3   173  HIS173     -0.1241
     33  CA       -12.5340   28.2580   69.3830 C.3   173  HIS173      0.1621
     34  C        -11.7350   28.6640   68.1510 C.2   173  HIS173      0.2264
     35  O        -10.6080   28.2330   67.9610 O.2   173  HIS173     -0.2867
     36  CB       -11.6780   27.4180   70.3470 C.3   173  HIS173      0.0745
     37  CG       -12.2480   27.3250   71.7320 C.ar  173  HIS173      0.0817
     38  ND1      -11.8840   28.1570   72.7660 N.ar  173  HIS173     -0.2268
     39  CD2      -13.1860   26.4830   72.2510 C.ar  173  HIS173      0.1154
     40  CE1      -12.5910   27.8120   73.8650 C.ar  173  HIS173      0.1986
     41  NE2      -13.3970   26.8020   73.6140 N.ar  173  HIS173     -0.2212
     42  N         -8.1740   30.1220   68.7060 N.3   243  GLY243     -0.1210
     43  CA        -7.4700   29.0360   69.3670 C.3   243  GLY243      0.1956
     44  C         -6.8470   28.0000   68.4440 C.2   243  GLY243      0.2611
     45  O         -5.6760   27.6860   68.5720 O.2   243  GLY243     -0.2717
     46  N         -7.6440   27.5060   67.5000 N.am  244  PHE244     -0.1976
     47  CA        -7.2160   26.4830   66.5460 C.3   244  PHE244      0.1639
     48  C         -6.1220   26.9670   65.5970 C.2   244  PHE244      0.2290
     49  O         -5.1400   26.2710   65.3740 O.2   244  PHE244     -0.2864
     50  CB        -8.4390   26.0040   65.7450 C.3   244  PHE244      0.0560
     51  CG        -8.1040   25.0830   64.6040 C.ar  244  PHE244     -0.0200
     52  CD1       -7.8440   23.7290   64.8310 C.ar  244  PHE244     -0.0042
     53  CD2       -8.0350   25.5720   63.3000 C.ar  244  PHE244     -0.0042
     54  CE1       -7.5150   22.8810   63.7740 C.ar  244  PHE244     -0.0003
     55  CE2       -7.7060   24.7310   62.2390 C.ar  244  PHE244     -0.0003
     56  CZ        -7.4460   23.3840   62.4780 C.ar  244  PHE244     -0.0000
     57  N         -2.9970   27.2410   67.6100 N.3   247  TRP247     -0.1241
     58  CA        -2.6070   25.8970   68.0560 C.3   247  TRP247      0.1605
     59  C         -1.8950   25.1640   66.9220 C.2   247  TRP247      0.2264
     60  O         -0.8490   24.5350   67.1230 O.2   247  TRP247     -0.2867
     61  CB        -3.8480   25.0930   68.4660 C.3   247  TRP247      0.0550
     62  CG        -3.6280   23.5960   68.5270 C.ar  247  TRP247      0.0003
     63  CD1       -3.1150   22.8790   69.5800 C.ar  247  TRP247      0.0946
     64  CD2       -3.8900   22.6420   67.4850 C.ar  247  TRP247      0.0152
     65  NE1       -3.0300   21.5430   69.2500 N.ar  247  TRP247     -0.2442
     66  CE2       -3.5010   21.3690   67.9740 C.ar  247  TRP247      0.0810
     67  CE3       -4.4100   22.7390   66.1890 C.ar  247  TRP247      0.0012
     68  CZ2       -3.6170   20.2080   67.2130 C.ar  247  TRP247      0.0191
     69  CZ3       -4.5250   21.5800   65.4240 C.ar  247  TRP247      0.0001
     70  CH2       -4.1280   20.3260   65.9410 C.ar  247  TRP247      0.0015
     71  N          3.0930   21.7960   69.6430 N.3   252  HIS252     -0.1241
     72  CA         2.1700   20.7160   69.9800 C.3   252  HIS252      0.1621
     73  C          1.2390   20.4350   68.8030 C.2   252  HIS252      0.2264
     74  O          1.0160   19.2770   68.4400 O.2   252  HIS252     -0.2867
     75  CB         1.3480   21.0410   71.2340 C.3   252  HIS252      0.0745
     76  CG         2.1340   20.9270   72.5070 C.ar  252  HIS252      0.0817
     77  ND1        2.6270   22.0010   73.2120 N.ar  252  HIS252     -0.2268
     78  CD2        2.5440   19.8220   73.1840 C.ar  252  HIS252      0.1154
     79  CE1        3.3090   21.5180   74.2710 C.ar  252  HIS252      0.1986
     80  NE2        3.2790   20.2000   74.2830 N.ar  252  HIS252     -0.2212
     81  N         -0.5850   16.8850   68.7720 N.3   257  VAL257     -0.1231
     82  CA        -1.0940   16.7710   70.1410 C.3   257  VAL257      0.1692
     83  C         -2.3900   17.5780   70.1430 C.2   257  VAL257      0.2593
     84  O         -2.3570   18.7960   70.0070 O.2   257  VAL257     -0.2718
     85  CB        -0.0840   17.3560   71.1530 C.3   257  VAL257      0.0266
     86  CG1       -0.6220   17.2350   72.5590 C.3   257  VAL257      0.0020
     87  CG2        1.2540   16.6380   71.0290 C.3   257  VAL257      0.0020
     88  N         -3.5270   16.8850   70.2180 N.am  258  SER258     -0.1938
     89  CA        -4.8360   17.5320   70.1640 C.3   258  SER258      0.2055
     90  C         -5.2240   18.3000   71.4160 C.2   258  SER258      0.2643
     91  O         -4.6790   18.0520   72.4850 O.2   258  SER258     -0.2714
     92  CB        -5.9310   16.5070   69.8890 C.3   258  SER258      0.2130
     93  OG        -6.1690   15.6960   71.0310 O.3   258  SER258     -0.2179
     94  N         -6.1860   19.2160   71.2710 N.am  259  CYS259     -0.1967
     95  CA        -6.6730   19.9900   72.4080 C.3   259  CYS259      0.1712
     96  C         -7.1020   19.0120   73.4970 C.2   259  CYS259      0.2296
     97  O         -6.8850   19.2710   74.6750 O.2   259  CYS259     -0.2864
     98  CB        -7.9230   20.8030   72.0560 C.3   259  CYS259      0.0983
     99  SG        -7.9860   21.6520   70.4500 S.3   259  CYS259     -0.0798
    100  N         -4.6210   17.4990   76.2480 N.3   262  CYS262     -0.1221
    101  CA        -4.3570   18.2960   77.4460 C.3   262  CYS262      0.1808
    102  C         -5.5990   18.7250   78.2200 C.2   262  CYS262      0.2601
    103  O         -5.5870   18.7680   79.4560 O.2   262  CYS262     -0.2717
    104  CB        -3.5580   19.5480   77.0780 C.3   262  CYS262      0.0970
    105  SG        -2.0040   19.2160   76.2810 S.3   262  CYS262     -0.0800
    106  N         -6.6750   19.0360   77.5010 N.am  263  HIS263     -0.1975
    107  CA        -7.8820   19.5260   78.1490 C.3   263  HIS263      0.1656
    108  C         -8.9160   18.4780   78.5150 C.2   263  HIS263      0.2291
    109  O         -9.8000   18.7560   79.3000 O.2   263  HIS263     -0.2864
    110  CB        -8.5230   20.6540   77.3250 C.3   263  HIS263      0.0771
    111  CG        -7.7050   21.9120   77.2740 C.ar  263  HIS263      0.0820
    112  ND1       -7.7360   22.8990   78.2420 N.ar  263  HIS263     -0.2267
    113  CD2       -6.8290   22.3480   76.3320 C.ar  263  HIS263      0.1154
    114  CE1       -6.8940   23.8830   77.8670 C.ar  263  HIS263      0.1986
    115  NE2       -6.3170   23.6020   76.7110 N.ar  263  HIS263     -0.2212
    116  N         -9.6830   24.0490   82.6020 N.3   281  GLU281     -0.1231
    117  CA        -9.4560   25.4810   82.4220 C.3   281  GLU281      0.1699
    118  C         -7.9680   25.7630   82.3870 C.2   281  GLU281      0.2592
    119  O         -7.4960   26.5920   81.6100 O.2   281  GLU281     -0.2718
    120  CB       -10.1020   26.2600   83.5630 C.3   281  GLU281      0.0402
    121  CG       -10.0940   27.7510   83.3760 C.3   281  GLU281      0.1161
    122  CD       -10.9380   28.4430   84.4290 C.2   281  GLU281      0.3649
    123  OE1      -10.8160   28.0800   85.6210 O.co2 281  GLU281     -0.2457
    124  OE2      -11.7480   29.3120   84.0530 O.co2 281  GLU281     -0.2457
    125  N         -7.2370   25.0570   83.2440 N.am  282  ASN282     -0.1961
    126  CA        -5.7960   25.1940   83.3360 C.3   282  ASN282      0.1804
    127  C         -5.1670   23.8140   83.4670 C.2   282  ASN282      0.2463
    128  O         -5.0040   23.2800   84.5760 O.2   282  ASN282     -0.2730
    129  CB        -5.3960   26.0860   84.5190 C.3   282  ASN282      0.1195
    130  CG        -3.8950   26.2420   84.6410 C.2   282  ASN282      0.2630
    131  OD1       -3.1430   25.6730   83.8540 O.2   282  ASN282     -0.2716
    132  ND2       -3.4490   26.9980   85.6400 N.am  282  ASN282     -0.0877
    133  N         -4.7990   23.2090   82.3270 N.am  283  PRO283     -0.2716
    134  CA        -4.1810   21.8810   82.3190 C.3   283  PRO283      0.1536
    135  C         -2.9660   21.7570   83.2450 C.2   283  PRO283      0.2598
    136  O         -2.6160   20.6510   83.6460 O.2   283  PRO283     -0.2715
    137  CB        -3.7900   21.6960   80.8520 C.3   283  PRO283      0.0310
    138  CG        -4.9400   22.4110   80.1240 C.3   283  PRO283      0.0237
    139  CD        -5.0430   23.6980   80.9500 C.3   283  PRO283      0.0939
    140  N         -2.3190   22.8790   83.5610 N.am  284  LEU284     -0.1978
    141  CA        -1.1540   22.8570   84.4540 C.3   284  LEU284      0.1596
    142  C         -1.5660   22.3660   85.8510 C.2   284  LEU284      0.2287
    143  O         -0.7540   21.7830   86.5720 O.2   284  LEU284     -0.2864
    144  CB        -0.4990   24.2370   84.5420 C.3   284  LEU284      0.0297
    145  CG         0.1150   24.7770   83.2390 C.3   284  LEU284      0.0022
    146  CD1        0.6430   26.1970   83.4520 C.3   284  LEU284      0.0001
    147  CD2        1.2270   23.8610   82.7820 C.3   284  LEU284      0.0001
    148  N         -0.0950   16.2390   81.0080 N.3   291  CYS291     -0.1235
    149  CA         1.2290   16.3770   80.3890 C.3   291  CYS291      0.1677
    150  C          2.2330   15.2530   80.6140 C.2   291  CYS291      0.2270
    151  O          3.0580   14.9650   79.7410 O.2   291  CYS291     -0.2867
    152  CB         1.9330   17.6540   80.8990 C.3   291  CYS291      0.0956
    153  SG         0.9420   19.1240   81.2520 S.3   291  CYS291     -0.0801
    154  N          6.4030   27.1780   81.7130 N.3   306  VAL306     -0.1245
    155  CA         5.2410   27.7630   81.0640 C.3   306  VAL306      0.1561
    156  C          4.9790   29.1860   81.5530 C.2   306  VAL306      0.2260
    157  O          4.6010   30.0540   80.7700 O.2   306  VAL306     -0.2867
    158  CB         3.9970   26.8860   81.2420 C.3   306  VAL306      0.0252
    159  CG1        2.7800   27.5600   80.6180 C.3   306  VAL306      0.0019
    160  CG2        4.2370   25.5250   80.5990 C.3   306  VAL306      0.0019
    161  N          4.2000   33.1710   79.7840 N.3   310  TYR310     -0.1241
    162  CA         3.1620   34.1320   80.1150 C.3   310  TYR310      0.1605
    163  C          3.7860   35.5070   80.3250 C.2   310  TYR310      0.2264
    164  O          3.2420   36.5210   79.8700 O.2   310  TYR310     -0.2867
    165  CB         2.3910   33.7010   81.3720 C.3   310  TYR310      0.0534
    166  CG         1.2570   34.6360   81.7140 C.ar  310  TYR310     -0.0201
    167  CD1        0.1240   34.7080   80.9010 C.ar  310  TYR310     -0.0009
    168  CD2        1.3290   35.4760   82.8260 C.ar  310  TYR310     -0.0009
    169  CE1       -0.9180   35.6070   81.1800 C.ar  310  TYR310      0.0417
    170  CE2        0.2960   36.3680   83.1260 C.ar  310  TYR310      0.0417
    171  CZ        -0.8240   36.4280   82.2910 C.ar  310  TYR310      0.1957
    172  OH        -1.8460   37.3190   82.5540 O.3   310  TYR310     -0.2866
    173  N         -6.9490   34.6110   71.9010 N.3   364  ALA364     -0.1231
    174  CA        -7.1360   33.2370   72.3750 C.3   364  ALA364      0.1694
    175  C         -6.1970   33.2170   73.5780 C.2   364  ALA364      0.2592
    176  O         -4.9880   33.3420   73.4260 O.2   364  ALA364     -0.2718
    177  CB        -6.7040   32.2240   71.3280 C.3   364  ALA364      0.0304
    178  N         -6.7730   33.1380   74.7740 N.am  365  HIS365     -0.1962
    179  CA        -6.0010   33.1860   76.0110 C.3   365  HIS365      0.1787
    180  C         -4.8580   32.2000   76.2130 C.2   365  HIS365      0.2620
    181  O         -3.8880   32.5150   76.8920 O.2   365  HIS365     -0.2715
    182  CB        -6.9420   33.1910   77.2080 C.3   365  HIS365      0.0785
    183  CG        -7.8440   34.3780   77.2250 C.ar  365  HIS365      0.0821
    184  ND1       -7.4770   35.5780   77.7930 N.ar  365  HIS365     -0.2267
    185  CD2       -9.0650   34.5750   76.6790 C.ar  365  HIS365      0.1154
    186  CE1       -8.4360   36.4650   77.5960 C.ar  365  HIS365      0.1986
    187  NE2       -9.4100   35.8810   76.9210 N.ar  365  HIS365     -0.2212
    188  N         -4.9510   31.0340   75.6070 N.am  366  GLY366     -0.1954
    189  CA        -3.8680   30.0740   75.7490 C.3   366  GLY366      0.1869
    190  C         -2.7800   30.2230   74.7000 C.2   366  GLY366      0.2309
    191  O         -1.8160   29.4590   74.7270 O.2   366  GLY366     -0.2863
    192  N         -0.3240   32.1430   74.4110 N.3   368  TYR368     -0.1227
    193  CA         1.0180   32.3120   74.9710 C.3   368  TYR368      0.1736
    194  C          1.7730   30.9970   75.1370 C.2   368  TYR368      0.2595
    195  O          2.9990   30.9820   75.0550 O.2   368  TYR368     -0.2718
    196  CB         0.9790   33.0870   76.3000 C.3   368  TYR368      0.0548
    197  CG         0.7000   32.2210   77.5130 C.ar  368  TYR368     -0.0200
    198  CD1       -0.6010   31.9740   77.9400 C.ar  368  TYR368     -0.0009
    199  CD2        1.7520   31.6250   78.2130 C.ar  368  TYR368     -0.0009
    200  CE1       -0.8510   31.1410   79.0450 C.ar  368  TYR368      0.0417
    201  CE2        1.5150   30.8000   79.2950 C.ar  368  TYR368      0.0417
    202  CZ         0.2230   30.5600   79.7010 C.ar  368  TYR368      0.1957
    203  OH         0.0140   29.6910   80.7350 O.3   368  TYR368     -0.2866
    204  N          1.0300   29.9230   75.4090 N.am  369  PHE369     -0.1962
    205  CA         1.5900   28.5860   75.5830 C.3   369  PHE369      0.1771
    206  C          1.4060   27.7040   74.3390 C.2   369  PHE369      0.2619
    207  O          2.3310   26.9910   73.9520 O.2   369  PHE369     -0.2715
    208  CB         0.9440   27.8720   76.7840 C.3   369  PHE369      0.0574
    209  CG         1.2420   26.4040   76.8330 C.ar  369  PHE369     -0.0200
    210  CD1        2.5050   25.9490   77.2170 C.ar  369  PHE369     -0.0042
    211  CD2        0.2930   25.4770   76.4200 C.ar  369  PHE369     -0.0042
    212  CE1        2.8180   24.5890   77.1830 C.ar  369  PHE369     -0.0003
    213  CE2        0.5940   24.1190   76.3800 C.ar  369  PHE369     -0.0003
    214  CZ         1.8550   23.6730   76.7610 C.ar  369  PHE369     -0.0000
    215  N          0.2100   27.6950   73.7540 N.am  370  HIS370     -0.1973
    216  CA        -0.0230   26.8530   72.5600 C.3   370  HIS370      0.1656
    217  C          0.9080   27.2390   71.4070 C.2   370  HIS370      0.2291
    218  O          1.3720   26.3840   70.6530 O.2   370  HIS370     -0.2864
    219  CB        -1.4460   27.0100   71.9760 C.3   370  HIS370      0.0771
    220  CG        -2.5760   26.7790   72.9360 C.ar  370  HIS370      0.0820
    221  ND1       -3.7940   27.4120   72.8190 N.ar  370  HIS370     -0.2267
    222  CD2       -2.7120   25.9100   73.9730 C.ar  370  HIS370      0.1154
    223  CE1       -4.6300   26.9260   73.7560 C.ar  370  HIS370      0.1986
    224  NE2       -4.0410   26.0050   74.4930 N.ar  370  HIS370     -0.2212
@<TRIPOS>BOND
     1    55    56   ar
     2    55    53   ar
     3    56    54   ar
     4    53    51   ar
     5    54    52   ar
     6    51    52   ar
     7    51    50    1
     8    49    48    2
     9    69    70   ar
    10    69    67   ar
    11    30    29    2
    12    31    28    1
    13    48    47    1
    14    50    47    1
    15    70    68   ar
    16    29    28    1
    17    67    64   ar
    18    47    46    1
    19    28    27    1
    20    20    18    1
    21    59    60    2
    22    59    58    1
    23    68    66   ar
    24    18    15    1
    25    18    19    1
    26    16    17    2
    27    16    15    1
    28    64    66   ar
    29    64    62   ar
    30    46    44   am
    31    57    58    1
    32    27    23   am
    33    35    34    2
    34    66    65   ar
    35    14    15    1
    36    58    61    1
    37    34    33    1
    38    74    73    2
    39    44    45    2
    40    44    43    1
    41    61    62    1
    42    62    63   ar
    43    42    43    1
    44    81    82    1
    45    73    72    1
    46    23    24    2
    47    23    22    1
    48    32    33    1
    49    21    22    1
    50    65    63   ar
    51    33    36    1
    52    71    72    1
    53    22    25    1
    54    92    89    1
    55    92    93    1
    56    72    75    1
    57    84    83    2
    58    82    83    1
    59    82    85    1
    60    83    88   am
    61    89    88    1
    62    89    90    1
    63    36    37    1
    64    99    98    1
    65    25    26    1
    66   218   217    2
    67    87    85    1
    68    85    86    1
    69    75    76    1
    70    94    90   am
    71    94    95    1
    72   177   174    1
    73   217   216    1
    74    90    91    2
    75    37    39   ar
    76    37    38   ar
    77   173   174    1
    78   219   216    1
    79   219   220    1
    80    98    95    1
    81    39    41   ar
    82   174   175    1
    83    95    96    1
    84    76    78   ar
    85    76    77   ar
    86   216   215    1
    87    38    40   ar
    88   221   220   ar
    89   221   223   ar
    90   220   222   ar
    91    78    80   ar
    92    77    79   ar
    93   176   175    2
    94    96    97    2
    95   175   178   am
    96    41    40   ar
    97   215   206   am
    98   223   224   ar
    99   207   206    2
   100   222   224   ar
   101    79    80   ar
   102   206   205    1
   103   192   193    1
   104   190   191    2
   105   190   189    1
   106   178   179    1
   107   193   194    1
   108   193   196    1
   109   195   194    2
   110   194   204   am
   111   204   205    1
   112   205   208    1
   113   188   189    1
   114   188   180   am
   115   179   180    1
   116   179   182    1
   117   180   181    2
   118   100   101    1
   119   105   104    1
   120   196   197    1
   121   113   115   ar
   122   113   111   ar
   123   213   211   ar
   124   213   214   ar
   125   211   209   ar
   126   185   187   ar
   127   185   183   ar
   128   115   114   ar
   129   214   212   ar
   130   208   209    1
   131   209   210   ar
   132   187   186   ar
   133   104   101    1
   134   212   210   ar
   135   182   183    1
   136   183   184   ar
   137   111   110    1
   138   111   112   ar
   139   110   107    1
   140   101   102    1
   141   106   107    1
   142   106   102   am
   143   197   198   ar
   144   197   199   ar
   145   186   184   ar
   146   114   112   ar
   147   198   200   ar
   148    12    11    1
   149    12    13    1
   150   107   108    1
   151   199   201   ar
   152   102   103    2
   153   108   109    2
   154    11     8    1
   155    13     7    1
   156   200   202   ar
   157   201   202   ar
   158   202   203    1
   159     7     8    1
   160     7     3   am
   161     8     9    1
   162   151   150    2
   163   161   162    1
   164   164   163    2
   165   162   163    1
   166   162   165    1
   167   138   137    1
   168   138   139    1
   169     2     3    1
   170     2     1    1
   171     2     5    1
   172     3     4    2
   173   149   150    1
   174   149   152    1
   175   149   148    1
   176   160   158    1
   177   159   158    1
   178   157   156    2
   179   137   134    1
   180   152   153    1
   181   167   169   ar
   182   167   166   ar
   183   139   133    1
   184   155   158    1
   185   155   156    1
   186   155   154    1
   187     9    10    2
   188   169   171   ar
   189     5     6    1
   190   165   166    1
   191   119   118    2
   192   166   168   ar
   193   171   172    1
   194   171   170   ar
   195   134   133    1
   196   134   135    1
   197   133   127   am
   198   118   117    1
   199   118   125   am
   200   117   116    1
   201   117   120    1
   202   147   145    1
   203   168   170   ar
   204   145   146    1
   205   145   144    1
   206   125   126    1
   207   135   140   am
   208   135   136    2
   209   126   127    1
   210   126   129    1
   211   121   120    1
   212   121   122    1
   213   127   128    2
   214   140   141    1
   215   131   130    2
   216   124   122   ar
   217   122   123   ar
   218   141   144    1
   219   141   142    1
   220   129   130    1
   221   130   132   am
   222   142   143    2
