@<TRIPOS>MOLECULE
tmp/1qdbB05.pdb
 149 142 0 0 0
SMALL
GASTEIGER

@<TRIPOS>ATOM
      1  N          4.2650   24.1040   68.3510 N.3   251  ILE251     -0.1231
      2  CA         4.8930   22.7780   68.2820 C.3   251  ILE251      0.1692
      3  C          3.9480   21.6320   68.6270 C.2   251  ILE251      0.2592
      4  O          3.9720   20.6000   67.9610 O.2   251  ILE251     -0.2718
      5  CB         6.1990   22.7100   69.1220 C.3   251  ILE251      0.0266
      6  CG1        7.0640   21.5180   68.6750 C.3   251  ILE251      0.0019
      7  CG2        5.8860   22.6230   70.6160 C.3   251  ILE251      0.0020
      8  CD1        7.5330   21.5950   67.2070 C.3   251  ILE251      0.0001
      9  N          3.0930   21.7960   69.6430 N.am  252  HIS252     -0.1976
     10  CA         2.1700   20.7160   69.9800 C.3   252  HIS252      0.1656
     11  C          1.2390   20.4350   68.8030 C.2   252  HIS252      0.2291
     12  O          1.0160   19.2770   68.4400 O.2   252  HIS252     -0.2864
     13  CB         1.3480   21.0410   71.2340 C.3   252  HIS252      0.0771
     14  CG         2.1340   20.9270   72.5070 C.ar  252  HIS252      0.0820
     15  ND1        2.6270   22.0010   73.2120 N.ar  252  HIS252     -0.2267
     16  CD2        2.5440   19.8220   73.1840 C.ar  252  HIS252      0.1154
     17  CE1        3.3090   21.5180   74.2710 C.ar  252  HIS252      0.1986
     18  NE2        3.2790   20.2000   74.2830 N.ar  252  HIS252     -0.2212
     19  N          2.9400   18.6640   66.0070 N.3   255  LYS255     -0.1245
     20  CA         3.2810   17.2930   66.3770 C.3   255  LYS255      0.1561
     21  C          2.0480   16.4210   66.5990 C.2   255  LYS255      0.2260
     22  O          2.1620   15.2920   67.0690 O.2   255  LYS255     -0.2867
     23  CB         4.1740   17.2600   67.6220 C.3   255  LYS255      0.0271
     24  CG         5.5740   17.8540   67.3920 C.3   255  LYS255      0.0035
     25  CD         6.2540   17.2650   66.1440 C.3   255  LYS255      0.0206
     26  CE         6.6720   15.8170   66.3310 C.3   255  LYS255      0.1093
     27  NZ         8.0930   15.6930   66.7690 N.3   255  LYS255     -0.1314
     28  N         -0.5850   16.8850   68.7720 N.3   257  VAL257     -0.1245
     29  CA        -1.0940   16.7710   70.1410 C.3   257  VAL257      0.1561
     30  C         -2.3900   17.5780   70.1430 C.2   257  VAL257      0.2260
     31  O         -2.3570   18.7960   70.0070 O.2   257  VAL257     -0.2867
     32  CB        -0.0840   17.3560   71.1530 C.3   257  VAL257      0.0252
     33  CG1       -0.6220   17.2350   72.5590 C.3   257  VAL257      0.0019
     34  CG2        1.2540   16.6380   71.0290 C.3   257  VAL257      0.0019
     35  N         -5.9840   16.0790   74.2590 N.3   261  ASP261     -0.1225
     36  CA        -4.8830   15.4290   74.9850 C.3   261  ASP261      0.1805
     37  C         -4.6080   16.1720   76.3000 C.2   261  ASP261      0.2598
     38  O         -4.3570   15.5570   77.3390 O.2   261  ASP261     -0.2718
     39  CB        -3.5840   15.4290   74.1580 C.3   261  ASP261      0.1424
     40  CG        -3.6330   14.5020   72.9270 C.2   261  ASP261      0.3668
     41  OD1       -4.6350   13.8280   72.6610 O.co2 261  ASP261     -0.2456
     42  OD2       -2.6190   14.4310   72.2140 O.co2 261  ASP261     -0.2456
     43  N         -4.6210   17.4990   76.2480 N.am  262  CYS262     -0.1970
     44  CA        -4.3570   18.2960   77.4460 C.3   262  CYS262      0.1712
     45  C         -5.5990   18.7250   78.2200 C.2   262  CYS262      0.2296
     46  O         -5.5870   18.7680   79.4560 O.2   262  CYS262     -0.2864
     47  CB        -3.5580   19.5480   77.0780 C.3   262  CYS262      0.0983
     48  SG        -2.0040   19.2160   76.2810 S.3   262  CYS262     -0.0798
     49  N         -4.7990   23.2090   82.3270 N.3   283  PRO283     -0.2102
     50  CA        -4.1810   21.8810   82.3190 C.3   283  PRO283      0.1504
     51  C         -2.9660   21.7570   83.2450 C.2   283  PRO283      0.2575
     52  O         -2.6160   20.6510   83.6460 O.2   283  PRO283     -0.2718
     53  CB        -3.7900   21.6960   80.8520 C.3   283  PRO283      0.0282
     54  CG        -4.9400   22.4110   80.1240 C.3   283  PRO283      0.0208
     55  CD        -5.0430   23.6980   80.9500 C.3   283  PRO283      0.0893
     56  N         -2.3190   22.8790   83.5610 N.am  284  LEU284     -0.1980
     57  CA        -1.1540   22.8570   84.4540 C.3   284  LEU284      0.1596
     58  C         -1.5660   22.3660   85.8510 C.2   284  LEU284      0.2287
     59  O         -0.7540   21.7830   86.5720 O.2   284  LEU284     -0.2864
     60  CB        -0.4990   24.2370   84.5420 C.3   284  LEU284      0.0297
     61  CG         0.1150   24.7770   83.2390 C.3   284  LEU284      0.0022
     62  CD1        0.6430   26.1970   83.4520 C.3   284  LEU284      0.0001
     63  CD2        1.2270   23.8610   82.7820 C.3   284  LEU284      0.0001
     64  N         -2.7250   15.6880   82.2570 N.3   290  SER290     -0.1202
     65  CA        -2.5520   16.5000   81.0450 C.3   290  SER290      0.2020
     66  C         -1.2010   16.5800   80.3360 C.2   290  SER290      0.2619
     67  O         -1.1710   16.9380   79.1590 O.2   290  SER290     -0.2717
     68  CB        -3.0010   17.9300   81.3480 C.3   290  SER290      0.2103
     69  OG        -4.3530   17.9820   81.7750 O.3   290  SER290     -0.2182
     70  N         -0.0950   16.2390   81.0080 N.am  291  CYS291     -0.1969
     71  CA         1.2290   16.3770   80.3890 C.3   291  CYS291      0.1712
     72  C          2.2330   15.2530   80.6140 C.2   291  CYS291      0.2296
     73  O          3.0580   14.9650   79.7410 O.2   291  CYS291     -0.2864
     74  CB         1.9330   17.6540   80.8990 C.3   291  CYS291      0.0983
     75  SG         0.9420   19.1240   81.2520 S.3   291  CYS291     -0.0798
     76  N          2.1110   12.1390   80.5970 N.3   293  ASN293     -0.1225
     77  CA         2.0110   10.9530   79.7660 C.3   293  ASN293      0.1785
     78  C          3.0260   11.0810   78.6120 C.2   293  ASN293      0.2597
     79  O          3.4050   10.0860   77.9950 O.2   293  ASN293     -0.2718
     80  CB         0.5710   10.7710   79.2500 C.3   293  ASN293      0.1169
     81  CG        -0.0650   12.0850   78.7410 C.2   293  ASN293      0.2627
     82  OD1        0.0220   13.1450   79.3890 O.2   293  ASN293     -0.2716
     83  ND2       -0.7310   12.0040   77.5870 N.am  293  ASN293     -0.0877
     84  N          3.5070   12.3060   78.3740 N.am  294  CYS294     -0.1956
     85  CA         4.4790   12.5830   77.3210 C.3   294  CYS294      0.1843
     86  C          5.7380   13.2500   77.8360 C.2   294  CYS294      0.2625
     87  O          6.7570   13.2780   77.1470 O.2   294  CYS294     -0.2714
     88  CB         3.8750   13.4980   76.2590 C.3   294  CYS294      0.0997
     89  SG         2.4230   12.8230   75.5020 S.3   294  CYS294     -0.0797
     90  N          5.6540   13.8470   79.0140 N.am  295  HIS295     -0.1973
     91  CA         6.7950   14.5270   79.5860 C.3   295  HIS295      0.1656
     92  C          7.1800   13.9170   80.9320 C.2   295  HIS295      0.2291
     93  O          6.3250   13.4800   81.6950 O.2   295  HIS295     -0.2864
     94  CB         6.4870   16.0190   79.7590 C.3   295  HIS295      0.0771
     95  CG         6.2690   16.7430   78.4680 C.ar  295  HIS295      0.0820
     96  ND1        7.2370   16.8920   77.4990 N.ar  295  HIS295     -0.2267
     97  CD2        5.1630   17.3690   77.9860 C.ar  295  HIS295      0.1154
     98  CE1        6.7050   17.5860   76.4800 C.ar  295  HIS295      0.1986
     99  NE2        5.4500   17.9000   76.7280 N.ar  295  HIS295     -0.2212
    100  N          8.1180   22.4090   85.2580 N.3   302  LEU302     -0.1245
    101  CA         7.3270   22.5260   84.0210 C.3   302  LEU302      0.1561
    102  C          6.3860   23.7240   84.1080 C.2   302  LEU302      0.2260
    103  O          6.2320   24.4870   83.1420 O.2   302  LEU302     -0.2867
    104  CB         6.5440   21.2410   83.7440 C.3   302  LEU302      0.0270
    105  CG         5.7990   21.1510   82.4090 C.3   302  LEU302      0.0019
    106  CD1        6.7690   21.3440   81.2190 C.3   302  LEU302      0.0001
    107  CD2        5.1180   19.7940   82.3240 C.3   302  LEU302      0.0001
    108  N          8.4330   26.8030   83.6020 N.3   305  ILE305     -0.1231
    109  CA         8.7770   26.9830   82.1920 C.3   305  ILE305      0.1692
    110  C          7.6140   27.6610   81.4630 C.2   305  ILE305      0.2591
    111  O          7.8060   28.5960   80.6640 O.2   305  ILE305     -0.2718
    112  CB         9.1010   25.6150   81.5400 C.3   305  ILE305      0.0266
    113  CG1       10.4820   25.1480   82.0160 C.3   305  ILE305      0.0019
    114  CG2        9.0640   25.7050   80.0030 C.3   305  ILE305      0.0020
    115  CD1       10.8060   23.7060   81.6700 C.3   305  ILE305      0.0001
    116  N          6.4030   27.1780   81.7130 N.am  306  VAL306     -0.1980
    117  CA         5.2410   27.7630   81.0640 C.3   306  VAL306      0.1595
    118  C          4.9790   29.1860   81.5530 C.2   306  VAL306      0.2287
    119  O          4.6010   30.0540   80.7700 O.2   306  VAL306     -0.2864
    120  CB         3.9970   26.8860   81.2420 C.3   306  VAL306      0.0276
    121  CG1        2.7800   27.5600   80.6180 C.3   306  VAL306      0.0022
    122  CG2        4.2370   25.5250   80.5990 C.3   306  VAL306      0.0022
    123  N          6.6520   31.8860   79.6460 N.3   309  LYS309     -0.1245
    124  CA         5.9650   32.2200   78.4010 C.3   309  LYS309      0.1561
    125  C          4.8760   33.2710   78.6420 C.2   309  LYS309      0.2260
    126  O          4.6550   34.1590   77.8130 O.2   309  LYS309     -0.2867
    127  CB         5.3710   30.9500   77.7800 C.3   309  LYS309      0.0271
    128  CG         6.4040   29.8100   77.5870 C.3   309  LYS309      0.0035
    129  CD         5.7960   28.6120   76.8510 C.3   309  LYS309      0.0206
    130  CE         6.7100   27.4040   76.8920 C.3   309  LYS309      0.1093
    131  NZ         8.0570   27.7500   76.3690 N.3   309  LYS309     -0.1314
    132  N          1.0300   29.9230   75.4090 N.3   369  PHE369     -0.1241
    133  CA         1.5900   28.5860   75.5830 C.3   369  PHE369      0.1605
    134  C          1.4060   27.7040   74.3390 C.2   369  PHE369      0.2264
    135  O          2.3310   26.9910   73.9520 O.2   369  PHE369     -0.2867
    136  CB         0.9440   27.8720   76.7840 C.3   369  PHE369      0.0534
    137  CG         1.2420   26.4040   76.8330 C.ar  369  PHE369     -0.0203
    138  CD1        2.5050   25.9490   77.2170 C.ar  369  PHE369     -0.0042
    139  CD2        0.2930   25.4770   76.4200 C.ar  369  PHE369     -0.0042
    140  CE1        2.8180   24.5890   77.1830 C.ar  369  PHE369     -0.0003
    141  CE2        0.5940   24.1190   76.3800 C.ar  369  PHE369     -0.0003
    142  CZ         1.8550   23.6730   76.7610 C.ar  369  PHE369     -0.0000
    143  N          3.6950   30.1520   71.4220 N.3   372  PRO372     -0.2116
    144  CA         4.4830   31.3030   71.8670 C.3   372  PRO372      0.1372
    145  C          5.1750   32.0970   70.7640 C.2   372  PRO372      0.2244
    146  O          5.2390   33.3210   70.8310 O.2   372  PRO372     -0.2868
    147  CB         5.5030   30.6730   72.8330 C.3   372  PRO372      0.0268
    148  CG         5.6710   29.2820   72.3330 C.3   372  PRO372      0.0207
    149  CD         4.2430   28.8840   71.9470 C.3   372  PRO372      0.0892
@<TRIPOS>BOND
     1    19    20    1
     2    25    26    1
     3    25    24    1
     4    26    27    1
     5    20    21    1
     6    20    23    1
     7    21    22    2
     8     8     6    1
     9    24    23    1
    10     4     3    2
    11     2     1    1
    12     2     3    1
    13     2     5    1
    14    12    11    2
    15     3     9   am
    16     6     5    1
    17    28    29    1
    18    11    10    1
    19     5     7    1
    20     9    10    1
    21    10    13    1
    22    31    30    2
    23    29    30    1
    24    29    32    1
    25   145   146    2
    26   145   144    1
    27    34    32    1
    28    32    33    1
    29    13    14    1
    30   143   144    1
    31   143   149    1
    32   144   147    1
    33   149   148    1
    34    42    40   ar
    35   148   147    1
    36    14    16   ar
    37    14    15   ar
    38    41    40   ar
    39    40    39    1
    40    16    18   ar
    41    15    17   ar
    42   135   134    2
    43    39    36    1
    44    35    36    1
    45    17    18   ar
    46   134   133    1
    47    36    37    1
    48   132   133    1
    49    89    88    1
    50   133   136    1
    51    43    37   am
    52    43    44    1
    53    88    85    1
    54    48    47    1
    55    37    38    2
    56   131   130    1
    57   141   139   ar
    58   141   142   ar
    59   139   137   ar
    60    98    99   ar
    61    98    96   ar
    62    99    97   ar
    63   142   140   ar
    64   136   137    1
    65   137   138   ar
    66   129   130    1
    67   129   128    1
    68    47    44    1
    69    87    86    2
    70   140   138   ar
    71    85    86    1
    72    85    84    1
    73    44    45    1
    74    96    95   ar
    75   128   127    1
    76    83    81   am
    77   127   124    1
    78   126   125    2
    79    86    90   am
    80    97    95   ar
    81    79    78    2
    82    45    46    2
    83    84    78   am
    84   124   125    1
    85   124   123    1
    86    95    94    1
    87    78    77    1
    88    81    80    1
    89    81    82    2
    90    90    91    1
    91    67    66    2
    92    80    77    1
    93    91    94    1
    94    91    92    1
    95    73    72    2
    96    77    76    1
    97   114   112    1
    98    54    53    1
    99    54    55    1
   100    66    70   am
   101    66    65    1
   102    71    72    1
   103    71    74    1
   104    71    70    1
   105   122   120    1
   106   121   120    1
   107   111   110    2
   108   119   118    2
   109    53    50    1
   110    74    75    1
   111    92    93    2
   112    55    49    1
   113    65    68    1
   114    65    64    1
   115   117   120    1
   116   117   118    1
   117   117   116    1
   118   106   105    1
   119    68    69    1
   120   110   116   am
   121   110   109    1
   122   112   113    1
   123   112   109    1
   124   115   113    1
   125   109   108    1
   126    50    49    1
   127    50    51    1
   128   107   105    1
   129   105   104    1
   130    63    61    1
   131   103   102    2
   132    61    62    1
   133    61    60    1
   134    51    56   am
   135    51    52    2
   136    56    57    1
   137   104   101    1
   138   101   102    1
   139   101   100    1
   140    57    60    1
   141    57    58    1
   142    58    59    2
