@<TRIPOS>MOLECULE
tmp/1qdbB02.pdb
 220 214 0 0 0
SMALL
GASTEIGER

@<TRIPOS>ATOM
      1  N        -28.6500   12.5110   78.5850 N.3    11  TRP11      -0.1241
      2  CA       -27.5860   11.5730   78.2480 C.3    11  TRP11       0.1605
      3  C        -27.0150   10.8910   79.4990 C.2    11  TRP11       0.2264
      4  O        -26.3690    9.8550   79.3800 O.2    11  TRP11      -0.2867
      5  CB       -26.4320   12.2750   77.5110 C.3    11  TRP11       0.0550
      6  CG       -26.7920   12.9210   76.1900 C.ar   11  TRP11       0.0003
      7  CD1      -27.7350   13.8880   75.9830 C.ar   11  TRP11       0.0946
      8  CD2      -26.1520   12.7090   74.9220 C.ar   11  TRP11       0.0152
      9  NE1      -27.7150   14.2990   74.6690 N.ar   11  TRP11      -0.2442
     10  CE2      -26.7510   13.5950   73.9960 C.ar   11  TRP11       0.0810
     11  CE3      -25.1240   11.8640   74.4790 C.ar   11  TRP11       0.0012
     12  CZ2      -26.3530   13.6630   72.6500 C.ar   11  TRP11       0.0191
     13  CZ3      -24.7270   11.9320   73.1370 C.ar   11  TRP11       0.0001
     14  CH2      -25.3430   12.8280   72.2400 C.ar   11  TRP11       0.0015
     15  N        -24.3810    7.5970   79.8340 N.3    15  TYR15      -0.1241
     16  CA       -22.9550    7.8770   80.0220 C.3    15  TYR15       0.1605
     17  C        -22.7820    8.7290   81.2700 C.2    15  TYR15       0.2264
     18  O        -22.4010    9.8990   81.1940 O.2    15  TYR15      -0.2867
     19  CB       -22.4280    8.6410   78.8060 C.3    15  TYR15       0.0534
     20  CG       -22.6950    7.9410   77.4920 C.ar   15  TYR15      -0.0201
     21  CD1      -22.0230    6.7660   77.1630 C.ar   15  TYR15      -0.0009
     22  CD2      -23.6280    8.4450   76.5850 C.ar   15  TYR15      -0.0009
     23  CE1      -22.2700    6.1120   75.9680 C.ar   15  TYR15       0.0417
     24  CE2      -23.8840    7.7950   75.3830 C.ar   15  TYR15       0.0417
     25  CZ       -23.2030    6.6300   75.0820 C.ar   15  TYR15       0.1957
     26  OH       -23.4640    5.9650   73.9030 O.3    15  TYR15      -0.2866
     27  N        -19.0880   10.5670   81.9220 N.3    18  GLN18      -0.1231
     28  CA       -18.8590   11.7120   81.0380 C.3    18  GLN18       0.1698
     29  C        -19.7960   12.8530   81.4350 C.2    18  GLN18       0.2592
     30  O        -19.3910   14.0180   81.4860 O.2    18  GLN18      -0.2718
     31  CB       -19.0910   11.3140   79.5740 C.3    18  GLN18       0.0381
     32  CG       -18.0250   10.3620   78.9840 C.3    18  GLN18       0.0905
     33  CD       -18.2020    8.8810   79.3670 C.2    18  GLN18       0.2608
     34  OE1      -17.3480    8.0550   79.0540 O.2    18  GLN18      -0.2717
     35  NE2      -19.2940    8.5530   80.0260 N.am   18  GLN18      -0.0878
     36  N        -21.0500   12.5310   81.7370 N.am   19  PHE19      -0.1976
     37  CA       -21.9840   13.5710   82.1500 C.3    19  PHE19       0.1639
     38  C        -21.5570   14.2640   83.4520 C.2    19  PHE19       0.2290
     39  O        -21.5570   15.4840   83.5200 O.2    19  PHE19      -0.2864
     40  CB       -23.4160   13.0280   82.3040 C.3    19  PHE19       0.0560
     41  CG       -24.3910   14.0570   82.7960 C.ar   19  PHE19      -0.0200
     42  CD1      -25.0300   14.9060   81.9000 C.ar   19  PHE19      -0.0042
     43  CD2      -24.6060   14.2370   84.1660 C.ar   19  PHE19      -0.0042
     44  CE1      -25.8660   15.9300   82.3570 C.ar   19  PHE19      -0.0003
     45  CE2      -25.4340   15.2550   84.6290 C.ar   19  PHE19      -0.0003
     46  CZ       -26.0670   16.1060   83.7170 C.ar   19  PHE19      -0.0000
     47  N        -18.5090   16.4220   82.8360 N.3    22  TRP22      -0.1241
     48  CA       -18.9170   17.5540   81.9850 C.3    22  TRP22       0.1605
     49  C        -19.5330   18.6400   82.8840 C.2    22  TRP22       0.2264
     50  O        -19.2570   19.8360   82.7440 O.2    22  TRP22      -0.2867
     51  CB       -19.9590   17.0660   80.9640 C.3    22  TRP22       0.0550
     52  CG       -20.7910   18.1530   80.2810 C.ar   22  TRP22       0.0003
     53  CD1      -20.4760   18.8330   79.1350 C.ar   22  TRP22       0.0946
     54  CD2      -22.0810   18.6320   80.6890 C.ar   22  TRP22       0.0152
     55  NE1      -21.4920   19.7070   78.8040 N.ar   22  TRP22      -0.2442
     56  CE2      -22.4860   19.6040   79.7430 C.ar   22  TRP22       0.0810
     57  CE3      -22.9410   18.3300   81.7640 C.ar   22  TRP22       0.0012
     58  CZ2      -23.7100   20.2800   79.8400 C.ar   22  TRP22       0.0191
     59  CZ3      -24.1530   18.9990   81.8600 C.ar   22  TRP22       0.0001
     60  CH2      -24.5260   19.9670   80.8990 C.ar   22  TRP22       0.0015
     61  N        -17.3250   26.0310   80.7730 N.3    60  HIS60      -0.1241
     62  CA       -18.3020   25.7730   79.6970 C.3    60  HIS60       0.1621
     63  C        -19.7140   25.8140   80.2690 C.2    60  HIS60       0.2264
     64  O        -20.6610   26.2430   79.6000 O.2    60  HIS60      -0.2867
     65  CB       -18.0840   24.3860   79.0680 C.3    60  HIS60       0.0745
     66  CG       -17.0750   24.3610   77.9570 C.ar   60  HIS60       0.0817
     67  ND1      -16.5900   23.2040   77.3880 N.ar   60  HIS60      -0.2268
     68  CD2      -16.4620   25.3760   77.3000 C.ar   60  HIS60       0.1154
     69  CE1      -15.7170   23.5450   76.4270 C.ar   60  HIS60       0.1986
     70  NE2      -15.6010   24.8520   76.3300 N.ar   60  HIS60      -0.2212
     71  N        -23.7130   24.5630   76.1020 N.3   124  ILE124     -0.1231
     72  CA       -22.7630   23.6730   75.4140 C.3   124  ILE124      0.1692
     73  C        -22.8990   22.2510   75.9690 C.2   124  ILE124      0.2593
     74  O        -22.6090   22.0110   77.1510 O.2   124  ILE124     -0.2718
     75  CB       -21.3270   24.1640   75.6680 C.3   124  ILE124      0.0266
     76  CG1      -21.1930   25.6110   75.1870 C.3   124  ILE124      0.0019
     77  CG2      -20.3010   23.2210   75.0060 C.3   124  ILE124      0.0020
     78  CD1      -19.8700   26.2670   75.5430 C.3   124  ILE124      0.0001
     79  N        -23.3550   21.3270   75.1220 N.am  125  GLY125     -0.1942
     80  CA       -23.6070   19.9750   75.5850 C.3   125  GLY125      0.2014
     81  C        -23.1420   18.8120   74.7420 C.2   125  GLY125      0.2639
     82  O        -22.4630   18.9890   73.7200 O.2   125  GLY125     -0.2714
     83  N        -23.5080   17.6100   75.1940 N.am  126  CYS126     -0.1967
     84  CA       -23.1270   16.3740   74.5270 C.3   126  CYS126      0.1712
     85  C        -23.3990   16.4320   73.0180 C.2   126  CYS126      0.2296
     86  O        -22.5480   16.0520   72.2100 O.2   126  CYS126     -0.2864
     87  CB       -23.8880   15.1940   75.1270 C.3   126  CYS126      0.0983
     88  SG       -24.1130   15.2300   76.9260 S.3   126  CYS126     -0.0798
     89  N        -20.9630   17.8510   70.3370 N.3   129  CYS129     -0.1221
     90  CA       -19.7940   17.0830   69.9210 C.3   129  CYS129      0.1808
     91  C        -20.0000   15.6250   69.5950 C.2   129  CYS129      0.2601
     92  O        -19.0660   14.9720   69.1230 O.2   129  CYS129     -0.2717
     93  CB       -18.7290   17.1600   71.0180 C.3   129  CYS129      0.0970
     94  SG       -18.2230   18.8210   71.3800 S.3   129  CYS129     -0.0800
     95  N        -21.2120   15.1220   69.8200 N.am  130  HIS130     -0.1975
     96  CA       -21.5130   13.7070   69.6040 C.3   130  HIS130      0.1656
     97  C        -22.8360   13.4100   68.8970 C.2   130  HIS130      0.2291
     98  O        -23.8280   14.0930   69.1010 O.2   130  HIS130     -0.2864
     99  CB       -21.6150   12.9820   70.9600 C.3   130  HIS130      0.0771
    100  CG       -20.3330   12.9090   71.7230 C.ar  130  HIS130      0.0820
    101  ND1      -19.3050   12.0490   71.4160 N.ar  130  HIS130     -0.2267
    102  CD2      -19.9310   13.5850   72.8290 C.ar  130  HIS130      0.1154
    103  CE1      -18.3410   12.2270   72.3240 C.ar  130  HIS130      0.1986
    104  NE2      -18.6840   13.1470   73.1950 N.ar  130  HIS130     -0.2212
    105  N        -22.6760    8.0170   69.6000 N.3   135  ALA135     -0.1245
    106  CA       -21.7380    8.7200   70.4840 C.3   135  ALA135      0.1562
    107  C        -20.4230    9.0570   69.7670 C.2   135  ALA135      0.2260
    108  O        -19.4720    9.5180   70.3960 O.2   135  ALA135     -0.2867
    109  CB       -21.4710    7.9360   71.7720 C.3   135  ALA135      0.0290
    110  N        -17.7890   11.1520   67.5290 N.3   137  LEU137     -0.1245
    111  CA       -17.5780   12.6010   67.4940 C.3   137  LEU137      0.1561
    112  C        -18.2920   13.1130   66.2400 C.2   137  LEU137      0.2260
    113  O        -18.2510   12.4700   65.1710 O.2   137  LEU137     -0.2867
    114  CB       -16.0920   12.9550   67.4570 C.3   137  LEU137      0.0270
    115  CG       -15.2570   12.6030   68.6910 C.3   137  LEU137      0.0019
    116  CD1      -13.8200   13.0090   68.4460 C.3   137  LEU137      0.0001
    117  CD2      -15.8120   13.3100   69.9240 C.3   137  LEU137      0.0001
    118  N         -8.9670   10.5190   63.4400 N.3   161  HIS161     -0.1241
    119  CA        -9.5690   10.5410   64.7580 C.3   161  HIS161      0.1621
    120  C         -8.8920   11.5730   65.6680 C.2   161  HIS161      0.2264
    121  O         -9.5780   12.2910   66.4000 O.2   161  HIS161     -0.2867
    122  CB        -9.5100    9.1600   65.3940 C.3   161  HIS161      0.0745
    123  CG       -10.2330    9.0860   66.6950 C.ar  161  HIS161      0.0817
    124  ND1      -11.5940    9.2720   66.7950 N.ar  161  HIS161     -0.2268
    125  CD2       -9.7830    8.8840   67.9550 C.ar  161  HIS161      0.1154
    126  CE1      -11.9520    9.1870   68.0620 C.ar  161  HIS161      0.1986
    127  NE2      -10.8730    8.9520   68.7840 N.ar  161  HIS161     -0.2212
    128  N        -10.4230   15.1100   67.4940 N.3   165  ARG165     -0.1245
    129  CA       -10.2810   15.4380   68.9180 C.3   165  ARG165      0.1563
    130  C         -9.8780   16.9000   69.1020 C.2   165  ARG165      0.2260
    131  O         -9.8640   17.4190   70.2260 O.2   165  ARG165     -0.2867
    132  CB        -9.2580   14.5110   69.5880 C.3   165  ARG165      0.0307
    133  CG        -9.7880   13.0890   69.8160 C.3   165  ARG165      0.0489
    134  CD        -8.6630   12.0620   70.1010 C.3   165  ARG165      0.2205
    135  NE        -7.7380   12.4870   71.1600 N.pl3 165  ARG165     -0.0865
    136  CZ        -8.0190   12.4880   72.4580 C.cat 165  ARG165      0.5346
    137  NH1       -9.2030   12.0860   72.8880 N.pl3 165  ARG165      0.1354
    138  NH2       -7.1150   12.8970   73.3330 N.pl3 165  ARG165      0.1354
    139  N        -13.5820   19.1970   67.2800 N.3   168  VAL168     -0.1231
    140  CA       -14.7970   19.3840   68.0770 C.3   168  VAL168      0.1692
    141  C        -14.6320   20.6230   68.9680 C.2   168  VAL168      0.2592
    142  O        -15.5910   21.0890   69.5730 O.2   168  VAL168     -0.2718
    143  CB       -15.1510   18.1460   68.9520 C.3   168  VAL168      0.0266
    144  CG1      -15.5650   16.9870   68.0610 C.3   168  VAL168      0.0020
    145  CG2      -13.9670   17.7470   69.8390 C.3   168  VAL168      0.0020
    146  N        -13.4000   21.1180   69.0810 N.am  169  CYS169     -0.1970
    147  CA       -13.1240   22.3370   69.8490 C.3   169  CYS169      0.1712
    148  C        -13.0680   23.5060   68.8620 C.2   169  CYS169      0.2296
    149  O        -13.5200   24.6170   69.1570 O.2   169  CYS169     -0.2864
    150  CB       -11.7740   22.2530   70.5500 C.3   169  CYS169      0.0983
    151  SG       -11.5740   20.7610   71.5550 S.3   169  CYS169     -0.0798
    152  N         -7.7600   17.9240   73.0870 N.3   260  ALA260     -0.1245
    153  CA        -8.2610   16.9330   74.0300 C.3   260  ALA260      0.1562
    154  C         -7.1740   16.2380   74.8350 C.2   260  ALA260      0.2260
    155  O         -7.4290   15.8270   75.9710 O.2   260  ALA260     -0.2867
    156  CB        -9.1440   15.8900   73.3170 C.3   260  ALA260      0.0290
    157  N         -8.8670   17.3090   77.8840 N.3   264  MET264     -0.1245
    158  CA        -9.8110   16.2320   78.2100 C.3   264  MET264      0.1570
    159  C         -8.9950   14.9620   78.3850 C.2   264  MET264      0.2261
    160  O         -9.2460   13.9430   77.7410 O.2   264  MET264     -0.2867
    161  CB       -10.8710   16.0680   77.1040 C.3   264  MET264      0.0387
    162  CG       -11.9370   17.1620   77.0970 C.3   264  MET264      0.0595
    163  SD       -13.2500   16.8580   75.8680 S.3   264  MET264     -0.1393
    164  CE       -13.8580   15.2240   76.4180 C.3   264  MET264      0.0692
    165  N         -7.3750   11.4340   79.5960 N.3   266  TYR266     -0.1241
    166  CA        -7.9950   10.1760   79.9880 C.3   266  TYR266      0.1605
    167  C         -7.8470   10.0500   81.5010 C.2   266  TYR266      0.2264
    168  O         -6.9470   10.6410   82.1100 O.2   266  TYR266     -0.2867
    169  CB        -7.3230    8.9890   79.2880 C.3   266  TYR266      0.0534
    170  CG        -7.5030    9.0050   77.7860 C.ar  266  TYR266     -0.0201
    171  CD1       -8.7750    9.1060   77.2220 C.ar  266  TYR266     -0.0009
    172  CD2       -6.4050    8.9530   76.9270 C.ar  266  TYR266     -0.0009
    173  CE1       -8.9550    9.1610   75.8350 C.ar  266  TYR266      0.0417
    174  CE2       -6.5700    9.0070   75.5330 C.ar  266  TYR266      0.0417
    175  CZ        -7.8490    9.1110   74.9980 C.ar  266  TYR266      0.1957
    176  OH        -8.0330    9.1670   73.6290 O.3   266  TYR266     -0.2866
    177  N        -11.6080    3.3280   82.1850 N.3   273  LYS273     -0.1231
    178  CA       -10.8020    4.4280   81.6660 C.3   273  LYS273      0.1693
    179  C        -11.6900    5.1770   80.6610 C.2   273  LYS273      0.2592
    180  O        -12.3260    4.5680   79.7960 O.2   273  LYS273     -0.2718
    181  CB        -9.5520    3.8860   80.9700 C.3   273  LYS273      0.0285
    182  CG        -8.6150    4.9540   80.4040 C.3   273  LYS273      0.0035
    183  CD        -7.4670    4.3080   79.6360 C.3   273  LYS273      0.0206
    184  CE        -6.6130    5.3430   78.9210 C.3   273  LYS273      0.1093
    185  NZ        -5.5510    4.7100   78.0870 N.3   273  LYS273     -0.1314
    186  N        -11.7880    6.4890   80.8200 N.am  274  TYR274     -0.1962
    187  CA       -12.6120    7.3000   79.9260 C.3   274  TYR274      0.1771
    188  C        -12.0130    8.6920   79.8450 C.2   274  TYR274      0.2620
    189  O        -10.9990    8.9690   80.4940 O.2   274  TYR274     -0.2715
    190  CB       -14.0610    7.3620   80.4290 C.3   274  TYR274      0.0574
    191  CG       -14.2630    8.1730   81.6890 C.ar  274  TYR274     -0.0198
    192  CD1      -13.9200    7.6590   82.9470 C.ar  274  TYR274     -0.0009
    193  CD2      -14.7830    9.4580   81.6250 C.ar  274  TYR274     -0.0009
    194  CE1      -14.0870    8.4240   84.1040 C.ar  274  TYR274      0.0417
    195  CE2      -14.9590   10.2220   82.7650 C.ar  274  TYR274      0.0417
    196  CZ       -14.6080    9.7070   83.9930 C.ar  274  TYR274      0.1957
    197  OH       -14.7660   10.4990   85.0880 O.3   274  TYR274     -0.2866
    198  N        -12.6090    9.5450   79.0160 N.am  275  SER275     -0.1950
    199  CA       -12.1320   10.9160   78.8500 C.3   275  SER275      0.1924
    200  C        -12.7580   11.8210   79.8880 C.2   275  SER275      0.2314
    201  O        -13.9790   11.8740   80.0210 O.2   275  SER275     -0.2863
    202  CB       -12.4820   11.4460   77.4510 C.3   275  SER275      0.2116
    203  OG       -11.8310   10.6900   76.4400 O.3   275  SER275     -0.2180
    204  N        -14.3980   14.7660   81.0720 N.3   277  HIS277     -0.1241
    205  CA       -15.1530   15.8130   80.3870 C.3   277  HIS277      0.1621
    206  C        -15.1620   17.1630   81.0660 C.2   277  HIS277      0.2264
    207  O        -15.8520   18.0830   80.6180 O.2   277  HIS277     -0.2867
    208  CB       -16.5680   15.3470   80.0570 C.3   277  HIS277      0.0745
    209  CG       -16.6350   14.5050   78.8220 C.ar  277  HIS277      0.0817
    210  ND1      -15.9380   13.3300   78.6490 N.ar  277  HIS277     -0.2268
    211  CD2      -17.3040   14.7120   77.6590 C.ar  277  HIS277      0.1154
    212  CE1      -16.2050   12.8720   77.4120 C.ar  277  HIS277      0.1986
    213  NE2      -17.0310   13.6840   76.7810 N.ar  277  HIS277     -0.2212
    214  N        -13.5500   19.8210   80.9070 N.3   279  VAL279     -0.1245
    215  CA       -12.5820   20.4940   80.0380 C.3   279  VAL279      0.1561
    216  C        -11.7240   21.3940   80.9320 C.2   279  VAL279      0.2260
    217  O        -12.2110   22.3750   81.4990 O.2   279  VAL279     -0.2867
    218  CB       -13.3320   21.2940   78.9380 C.3   279  VAL279      0.0252
    219  CG1      -12.3340   22.0230   78.0430 C.3   279  VAL279      0.0019
    220  CG2      -14.2140   20.3150   78.0990 C.3   279  VAL279      0.0019
@<TRIPOS>BOND
     1   118   119    1
     2   119   122    1
     3   119   120    1
     4   113   112    2
     5   122   123    1
     6   120   121    2
     7   112   111    1
     8   123   124   ar
     9   123   125   ar
    10   124   126   ar
    11   139   140    1
    12   114   111    1
    13   114   115    1
    14   128   129    1
    15   111   110    1
    16   125   127   ar
    17   144   143    1
    18   126   127   ar
    19   140   143    1
    20   140   141    1
    21   116   115    1
    22   115   117    1
    23   148   149    2
    24   148   147    1
    25    97    98    2
    26    97    96    1
    27   129   130    1
    28   129   132    1
    29   143   145    1
    30   141   146   am
    31   141   142    2
    32   146   147    1
    33   130   131    2
    34    92    91    2
    35   132   133    1
    36    91    95   am
    37    91    90    1
    38   105   106    1
    39    96    95    1
    40    96    99    1
    41   107   108    2
    42   107   106    1
    43   133   134    1
    44   147   150    1
    45    90    89    1
    46    90    93    1
    47   134   135    1
    48   106   109    1
    49   150   151    1
    50    99   100    1
    51    93    94    1
    52   135   136    2
    53   101   100   ar
    54   101   103   ar
    55   100   102   ar
    56    86    85    2
    57    14    12   ar
    58    14    13   ar
    59   103   104   ar
    60   136   137    1
    61   136   138    1
    62    12    10   ar
    63   102   104   ar
    64    85    84    1
    65   152   153    1
    66    13    11   ar
    67   156   153    1
    68   176   175    1
    69    82    81    2
    70    26    25    1
    71    10     9   ar
    72    10     8   ar
    73   153   154    1
    74    11     8   ar
    75    84    87    1
    76    84    83    1
    77     9     7   ar
    78    81    83   am
    79    81    80    1
    80   154   155    2
    81     8     6   ar
    82   175   174   ar
    83   175   173   ar
    84    77    75    1
    85    25    24   ar
    86    25    23   ar
    87    79    80    1
    88    79    73   am
    89    87    88    1
    90    76    78    1
    91    76    75    1
    92    24    22   ar
    93    72    75    1
    94    72    73    1
    95    72    71    1
    96   174   172   ar
    97   173   171   ar
    98   163   164    1
    99   163   162    1
   100    23    21   ar
   101    73    74    2
   102     7     6   ar
   103     6     5    1
   104    70    69   ar
   105    70    68   ar
   106    69    67   ar
   107   203   202    1
   108    22    20   ar
   109   213   212   ar
   110   213   211   ar
   111   172   170   ar
   112   162   161    1
   113   161   158    1
   114    21    20   ar
   115   171   170   ar
   116    68    66   ar
   117    67    66   ar
   118   212   210   ar
   119   202   199    1
   120    20    19    1
   121     5     2    1
   122   211   209   ar
   123   160   159    2
   124   170   169    1
   125   157   158    1
   126    66    65    1
   127   219   218    1
   128   185   184    1
   129   220   218    1
   130   158   159    1
   131     2     1    1
   132     2     3    1
   133   210   209   ar
   134    55    53   ar
   135    55    56   ar
   136    19    16    1
   137   209   208    1
   138   199   198    1
   139   199   200    1
   140   184   183    1
   141   218   215    1
   142    32    33    1
   143    32    31    1
   144   198   188   am
   145    34    33    2
   146    65    62    1
   147    53    52   ar
   148   169   166    1
   149    33    35   am
   150     4     3    2
   151    31    28    1
   152   165   166    1
   153    64    63    2
   154   183   182    1
   155    62    63    1
   156    62    61    1
   157    56    58   ar
   158    56    54   ar
   159   180   179    2
   160    15    16    1
   161    58    60   ar
   162   188   187    1
   163   188   189    2
   164   200   201    2
   165   187   190    1
   166   187   186    1
   167   166   167    1
   168    16    17    1
   169   215   214    1
   170   215   216    1
   171   208   205    1
   172    52    54   ar
   173    52    51    1
   174   205   206    1
   175   205   204    1
   176   182   181    1
   177   190   191    1
   178   207   206    2
   179   179   186   am
   180   179   178    1
   181    54    57   ar
   182    60    59   ar
   183   216   217    2
   184    51    48    1
   185   181   178    1
   186    28    29    1
   187    28    27    1
   188    18    17    2
   189    29    30    2
   190    29    36   am
   191   167   168    2
   192   193   191   ar
   193   193   195   ar
   194   178   177    1
   195   191   192   ar
   196    36    37    1
   197    57    59   ar
   198    42    44   ar
   199    42    41   ar
   200    48    47    1
   201    48    49    1
   202    37    40    1
   203    37    38    1
   204    40    41    1
   205    44    46   ar
   206    50    49    2
   207   195   196   ar
   208    41    43   ar
   209   192   194   ar
   210    38    39    2
   211    46    45   ar
   212   196   194   ar
   213   196   197    1
   214    43    45   ar
