@<TRIPOS>MOLECULE
tmp/1qdcC00.pdb
 101 100 0 0 0
SMALL
GASTEIGER

@<TRIPOS>ATOM
      1  N        -17.4410   40.5320   51.5240 N.3    12  TYR12      -0.1228
      2  CA       -18.1050   41.3580   52.5220 C.3    12  TYR12       0.1721
      3  C        -17.3050   42.5850   52.9250 C.2    12  TYR12       0.2437
      4  O        -16.2300   42.4730   53.5070 O.2    12  TYR12      -0.2733
      5  CB       -18.3830   40.5210   53.7680 C.3    12  TYR12       0.0547
      6  CG       -19.3050   41.2060   54.7390 C.ar   12  TYR12      -0.0200
      7  CD1      -20.6760   41.2170   54.5090 C.ar   12  TYR12      -0.0009
      8  CD2      -18.8110   41.8860   55.8560 C.ar   12  TYR12      -0.0009
      9  CE1      -21.5400   41.8760   55.3570 C.ar   12  TYR12       0.0417
     10  CE2      -19.6770   42.5620   56.7220 C.ar   12  TYR12       0.0417
     11  CZ       -21.0450   42.5520   56.4540 C.ar   12  TYR12       0.1957
     12  OH       -21.9420   43.2320   57.2420 O.3    12  TYR12      -0.2866
     13  N        -17.8520   43.7890   52.6280 N.am   13  PRO13      -0.2718
     14  CA       -17.1460   45.0270   52.9970 C.3    13  PRO13       0.1535
     15  C        -17.1230   45.3160   54.4970 C.2    13  PRO13       0.2599
     16  O        -18.1600   45.5630   55.1010 O.2    13  PRO13      -0.2715
     17  CB       -17.9310   46.0910   52.2160 C.3    13  PRO13       0.0310
     18  CG       -19.3000   45.5130   52.1250 C.3    13  PRO13       0.0237
     19  CD       -19.0260   44.0700   51.8070 C.3    13  PRO13       0.0939
     20  N        -15.9400   45.2250   55.1120 N.am   14  ASN14      -0.1959
     21  CA       -15.7830   45.5080   56.5430 C.3    14  ASN14       0.1819
     22  C        -15.0840   46.8530   56.5820 C.2    14  ASN14       0.2622
     23  O        -13.8650   46.9220   56.7500 O.2    14  ASN14      -0.2715
     24  CB       -14.8930   44.4690   57.2490 C.3    14  ASN14       0.1195
     25  CG       -15.4970   43.0700   57.2570 C.2    14  ASN14       0.2630
     26  OD1      -15.2700   42.2900   56.3400 O.2    14  ASN14      -0.2716
     27  ND2      -16.2630   42.7510   58.2950 N.am   14  ASN14      -0.0877
     28  N        -15.8480   47.9230   56.3960 N.am   15  THR15      -0.1937
     29  CA       -15.2640   49.2570   56.3590 C.3    15  THR15       0.2028
     30  C        -14.4750   49.7220   57.5840 C.2    15  THR15       0.2642
     31  O        -13.5420   50.5070   57.4280 O.2    15  THR15      -0.2714
     32  CB       -16.3010   50.3090   55.8960 C.3    15  THR15       0.1808
     33  OG1      -17.4950   50.1930   56.6770 O.3    15  THR15      -0.2208
     34  CG2      -16.6670   50.0810   54.4290 C.3    15  THR15       0.0379
     35  N        -14.7940   49.2140   58.7800 N.am   16  ASP16      -0.1971
     36  CA       -14.0680   49.6090   60.0100 C.3    16  ASP16       0.1709
     37  C        -12.5820   49.3060   59.8890 C.2    16  ASP16       0.2293
     38  O        -11.7650   49.8840   60.6190 O.2    16  ASP16      -0.2864
     39  CB       -14.5240   48.8430   61.2590 C.3    16  ASP16       0.1436
     40  CG       -15.9810   48.4780   61.2420 C.2    16  ASP16       0.3671
     41  OD1      -16.7690   49.1990   61.9040 O.co2  16  ASP16      -0.2456
     42  OD2      -16.3250   47.4410   60.6180 O.co2  16  ASP16      -0.2456
     43  N        -18.8270   34.4440   58.8640 N.3    98  GLY98      -0.1210
     44  CA       -18.9820   34.9630   60.2210 C.3    98  GLY98       0.1956
     45  C        -20.4600   34.9920   60.5720 C.2    98  GLY98       0.2612
     46  O        -21.0940   33.9340   60.6470 O.2    98  GLY98      -0.2717
     47  N        -21.0120   36.1860   60.7910 N.am   99  LEU99      -0.1965
     48  CA       -22.4400   36.3300   61.0710 C.3    99  LEU99       0.1728
     49  C        -23.1500   35.9620   59.7570 C.2    99  LEU99       0.2616
     50  O        -24.2160   35.3320   59.7610 O.2    99  LEU99      -0.2715
     51  CB       -22.7720   37.7790   61.4640 C.3    99  LEU99       0.0311
     52  CG       -24.2480   38.0840   61.7550 C.3    99  LEU99       0.0022
     53  CD1      -24.6210   37.4540   63.0890 C.3    99  LEU99       0.0001
     54  CD2      -24.5050   39.5860   61.7990 C.3    99  LEU99       0.0001
     55  N        -22.5920   36.4310   58.6400 N.am  100  TYR100     -0.1974
     56  CA       -23.1310   36.1320   57.3170 C.3   100  TYR100      0.1639
     57  C        -22.3030   34.9940   56.7190 C.2   100  TYR100      0.2290
     58  O        -21.1960   34.7190   57.1860 O.2   100  TYR100     -0.2864
     59  CB       -23.1080   37.3760   56.4330 C.3   100  TYR100      0.0560
     60  CG       -24.0330   38.4550   56.9380 C.ar  100  TYR100     -0.0198
     61  CD1      -25.4190   38.3030   56.8520 C.ar  100  TYR100     -0.0009
     62  CD2      -23.5340   39.5920   57.5630 C.ar  100  TYR100     -0.0009
     63  CE1      -26.2890   39.2570   57.3780 C.ar  100  TYR100      0.0417
     64  CE2      -24.3940   40.5540   58.0960 C.ar  100  TYR100      0.0417
     65  CZ       -25.7720   40.3730   58.0020 C.ar  100  TYR100      0.1957
     66  OH       -26.6370   41.2970   58.5450 O.3   100  TYR100     -0.2866
     67  N        -20.7250   36.4020   52.7650 N.3   207  ALA207     -0.1231
     68  CA       -19.4920   36.7040   53.4890 C.3   207  ALA207      0.1694
     69  C        -18.8390   35.3640   53.8230 C.2   207  ALA207      0.2592
     70  O        -19.5370   34.3470   53.8900 O.2   207  ALA207     -0.2718
     71  CB       -19.8110   37.4610   54.7580 C.3   207  ALA207      0.0304
     72  N        -17.5260   35.3310   54.0480 N.am  208  ASP208     -0.1974
     73  CA       -16.6420   36.4970   54.0180 C.3   208  ASP208      0.1709
     74  C        -15.6750   36.5500   52.8370 C.2   208  ASP208      0.2293
     75  O        -15.1370   37.6100   52.5240 O.2   208  ASP208     -0.2864
     76  CB       -15.8590   36.6010   55.3260 C.3   208  ASP208      0.1436
     77  CG       -16.6640   37.2670   56.4280 C.2   208  ASP208      0.3671
     78  OD1      -16.7200   38.5130   56.4520 O.co2 208  ASP208     -0.2456
     79  OD2      -17.2610   36.5470   57.2540 O.co2 208  ASP208     -0.2456
     80  N        -12.0020   33.7410   62.1890 N.3   226  THR226     -0.1203
     81  CA       -13.2290   33.5500   61.4180 C.3   226  THR226      0.1994
     82  C        -13.6670   34.9250   60.9260 C.2   226  THR226      0.2618
     83  O        -13.0700   35.9320   61.3020 O.2   226  THR226     -0.2717
     84  CB       -14.3720   32.9490   62.2750 C.3   226  THR226      0.1784
     85  OG1      -14.4810   33.6530   63.5200 O.3   226  THR226     -0.2211
     86  CG2      -14.0920   31.4870   62.5660 C.3   226  THR226      0.0376
     87  N        -14.6690   34.9620   60.0600 N.am  227  GLY227     -0.1942
     88  CA       -15.1580   36.2320   59.5570 C.3   227  GLY227      0.2014
     89  C        -14.1660   37.0590   58.7500 C.2   227  GLY227      0.2638
     90  O        -13.4880   36.5400   57.8610 O.2   227  GLY227     -0.2714
     91  N        -14.0880   38.3490   59.0820 N.am  228  ARG228     -0.1977
     92  CA       -13.2340   39.3460   58.4240 C.3   228  ARG228      0.1597
     93  C        -11.7670   38.9850   58.2040 C.2   228  ARG228      0.2287
     94  O        -11.1470   39.4680   57.2770 O.2   228  ARG228     -0.2864
     95  CB       -13.2910   40.6600   59.2120 C.3   228  ARG228      0.0334
     96  CG       -13.0770   40.4640   60.7050 C.3   228  ARG228      0.0492
     97  CD       -12.3830   41.6490   61.3680 C.3   228  ARG228      0.2205
     98  NE       -13.2580   42.7560   61.7210 N.pl3 228  ARG228     -0.0865
     99  CZ       -12.9900   43.6650   62.6610 C.cat 228  ARG228      0.5346
    100  NH1      -11.8740   43.6030   63.3850 N.pl3 228  ARG228      0.1354
    101  NH2      -13.7920   44.7090   62.7950 N.pl3 228  ARG228      0.1354
@<TRIPOS>BOND
     1     1     2    1
     2    19    18    1
     3    19    13    1
     4    18    17    1
     5    17    14    1
     6     2     3    1
     7     2     5    1
     8    75    74    2
     9    13     3   am
    10    13    14    1
    11    67    68    1
    12    74    73    1
    13     3     4    2
    14    14    15    1
    15    68    69    1
    16    68    71    1
    17     5     6    1
    18    69    70    2
    19    69    72   am
    20    73    72    1
    21    73    76    1
    22    34    32    1
    23    15    16    2
    24    15    20   am
    25     7     6   ar
    26     7     9   ar
    27     6     8   ar
    28    20    21    1
    29    76    77    1
    30     9    11   ar
    31     8    10   ar
    32    32    29    1
    33    32    33    1
    34    26    25    2
    35    29    28    1
    36    29    30    1
    37    28    22   am
    38    77    78   ar
    39    77    79   ar
    40    59    60    1
    41    59    56    1
    42    11    10   ar
    43    11    12    1
    44    21    22    1
    45    21    24    1
    46    22    23    2
    47    57    58    2
    48    57    56    1
    49    61    60   ar
    50    61    63   ar
    51    60    62   ar
    52    24    25    1
    53    25    27   am
    54    94    93    2
    55    56    55    1
    56    63    65   ar
    57    31    30    2
    58    62    64   ar
    59    30    35   am
    60    90    89    2
    61    65    64   ar
    62    65    66    1
    63    93    92    1
    64    92    91    1
    65    92    95    1
    66    55    49   am
    67    89    91   am
    68    89    88    1
    69    35    36    1
    70    43    44    1
    71    95    96    1
    72    88    87    1
    73    49    50    2
    74    49    48    1
    75    37    36    1
    76    37    38    2
    77    36    39    1
    78    87    82   am
    79    44    45    1
    80    45    46    2
    81    45    47   am
    82    42    40   ar
    83    96    97    1
    84    47    48    1
    85    82    83    2
    86    82    81    1
    87    48    51    1
    88    40    39    1
    89    40    41   ar
    90    97    98    1
    91    81    80    1
    92    81    84    1
    93    51    52    1
    94    98    99    2
    95    52    54    1
    96    52    53    1
    97    84    86    1
    98    84    85    1
    99    99   101    1
   100    99   100    1
