@<TRIPOS>MOLECULE
tmp/1qdqA00.pdb
 192 188 0 0 0
SMALL
GASTEIGER

@<TRIPOS>ATOM
      1  N          7.5200   24.3660  -15.0790 N.3    23  GLN23      -0.1231
      2  CA         8.3200   23.1410  -15.2120 C.3    23  GLN23       0.1698
      3  C          7.5640   21.9310  -15.7550 C.2    23  GLN23       0.2593
      4  O          8.1700   20.8980  -16.0630 O.2    23  GLN23      -0.2718
      5  CB         8.9540   22.7290  -13.8560 C.3    23  GLN23       0.0381
      6  CG         7.9440   22.5290  -12.7210 C.3    23  GLN23       0.0905
      7  CD         8.5500   22.2020  -11.3620 C.2    23  GLN23       0.2608
      8  OE1        8.7380   23.0290  -10.4510 O.2    23  GLN23      -0.2717
      9  NE2        8.8730   20.9360  -11.2280 N.am   23  GLN23      -0.0878
     10  N          6.2600   21.9920  -15.9980 N.am   24  GLY24      -0.1942
     11  CA         5.5170   20.8450  -16.5030 C.3    24  GLY24       0.2014
     12  C          5.4730   19.7680  -15.4310 C.2    24  GLY24       0.2640
     13  O          5.6840   20.0510  -14.2270 O.2    24  GLY24      -0.2714
     14  N          5.1320   18.5530  -15.8770 N.am   25  SER25      -0.1935
     15  CA         5.0410   17.3910  -15.0110 C.3    25  SER25       0.2055
     16  C          6.4290   16.7670  -14.9740 C.2    25  SER25       0.2643
     17  O          6.6640   15.7160  -15.5870 O.2    25  SER25      -0.2714
     18  CB         4.0340   16.4340  -15.6040 C.3    25  SER25       0.2130
     19  OG         2.7440   17.0120  -15.6110 O.3    25  SER25      -0.2179
     20  N          7.3910   17.4100  -14.3000 N.am   26  CYS26      -0.1953
     21  CA         8.7830   16.9820  -14.3120 C.3    26  CYS26       0.1843
     22  C          9.4140   17.5570  -13.0700 C.2    26  CYS26       0.2626
     23  O          9.0930   18.6880  -12.7060 O.2    26  CYS26      -0.2714
     24  CB         9.4100   17.5110  -15.6230 C.3    26  CYS26       0.0997
     25  SG        11.2020   17.3030  -15.6880 S.3    26  CYS26      -0.0797
     26  N         10.1960   16.8180  -12.3030 N.am   27  GLY27      -0.1954
     27  CA        10.8740   17.3810  -11.1380 C.3    27  GLY27       0.1869
     28  C         12.1250   18.1210  -11.5800 C.2    27  GLY27       0.2309
     29  O         13.2460   17.8290  -11.1520 O.2    27  GLY27      -0.2863
     30  N         12.5800   21.3940  -11.1970 N.3    29  CYS29      -0.1221
     31  CA        12.6130   22.6140  -10.4270 C.3    29  CYS29       0.1808
     32  C         14.0540   23.1060  -10.1430 C.2    29  CYS29       0.2601
     33  O         14.3050   24.3220  -10.2070 O.2    29  CYS29      -0.2717
     34  CB        11.8100   22.3350   -9.1270 C.3    29  CYS29       0.0970
     35  SG        12.5970   21.3520   -7.8360 S.3    29  CYS29      -0.0800
     36  N         15.0350   22.1930   -9.8950 N.am   30  TRP30      -0.1976
     37  CA        16.4440   22.5540   -9.6790 C.3    30  TRP30       0.1640
     38  C         17.0650   23.3500  -10.8650 C.2    30  TRP30       0.2290
     39  O         17.9060   24.2420  -10.6770 O.2    30  TRP30      -0.2864
     40  CB        17.2310   21.2320   -9.4070 C.3    30  TRP30       0.0576
     41  CG        17.2500   20.2360  -10.5750 C.ar   30  TRP30       0.0006
     42  CD1       16.2730   19.2960  -10.7540 C.ar   30  TRP30       0.0946
     43  CD2       18.1570   20.2120  -11.6020 C.ar   30  TRP30       0.0152
     44  NE1       16.5400   18.6810  -11.8880 N.ar   30  TRP30      -0.2442
     45  CE2       17.6480   19.2030  -12.4260 C.ar   30  TRP30       0.0810
     46  CE3       19.3210   20.9180  -11.9420 C.ar   30  TRP30       0.0012
     47  CZ2       18.2850   18.9060  -13.6240 C.ar   30  TRP30       0.0191
     48  CZ3       19.9620   20.6310  -13.1330 C.ar   30  TRP30       0.0001
     49  CH2       19.4400   19.6310  -13.9610 C.ar   30  TRP30       0.0015
     50  N         13.7340   13.5590  -12.1820 N.3    70  ASN70      -0.1225
     51  CA        13.6490   12.9890  -10.8600 C.3    70  ASN70       0.1785
     52  C         14.2170   13.8780   -9.7740 C.2    70  ASN70       0.2598
     53  O         14.1780   13.5430   -8.5830 O.2    70  ASN70      -0.2718
     54  CB        14.4000   11.7050  -10.7870 C.3    70  ASN70       0.1169
     55  CG        13.5500   10.5730  -11.2520 C.2    70  ASN70       0.2627
     56  OD1       12.8210   10.0090  -10.4530 O.2    70  ASN70      -0.2716
     57  ND2       13.6190   10.2370  -12.5150 N.am   70  ASN70      -0.0877
     58  N         14.8040   15.0010  -10.1680 N.am   71  GLY71      -0.1942
     59  CA        15.3010   15.9740   -9.2100 C.3    71  GLY71       0.2014
     60  C         16.7850   16.1180   -9.3690 C.2    71  GLY71       0.2639
     61  O         17.4310   15.2750   -9.9890 O.2    71  GLY71      -0.2714
     62  N         17.3410   17.1530   -8.7830 N.am   72  GLY72      -0.1954
     63  CA        18.7500   17.3380   -8.9180 C.3    72  GLY72       0.1869
     64  C         19.3220   18.2540   -7.8640 C.2    72  GLY72       0.2309
     65  O         18.7140   18.5480   -6.8290 O.2    72  GLY72      -0.2863
     66  N         21.0110   21.9490   -7.2470 N.3    74  PRO74      -0.2116
     67  CA        21.0910   23.3720   -7.6620 C.3    74  PRO74       0.1372
     68  C         22.5110   23.9020   -7.9500 C.2    74  PRO74       0.2244
     69  O         22.7600   24.4560   -9.0260 O.2    74  PRO74      -0.2868
     70  CB        20.3770   24.1270   -6.5290 C.3    74  PRO74       0.0268
     71  CG        19.3820   23.1070   -6.0020 C.3    74  PRO74       0.0207
     72  CD        20.2280   21.8210   -6.0200 C.3    74  PRO74       0.0892
     73  N         -0.8310   22.9640  -11.5690 N.3   108  HIS108     -0.1226
     74  CA        -0.0740   22.5130  -10.4250 C.3   108  HIS108      0.1752
     75  C         -0.9440   22.7500   -9.2130 C.2   108  HIS108      0.2596
     76  O         -0.9460   23.8850   -8.7370 O.2   108  HIS108     -0.2718
     77  CB         1.2250   23.3050  -10.2540 C.3   108  HIS108      0.0759
     78  CG         2.2090   23.0930  -11.3970 C.ar  108  HIS108      0.0818
     79  ND1        3.2500   22.2740  -11.5020 N.ar  108  HIS108     -0.2268
     80  CD2        2.0990   23.7240  -12.6200 C.ar  108  HIS108      0.1154
     81  CE1        3.7580   22.3510  -12.6980 C.ar  108  HIS108      0.1986
     82  NE2        3.0480   23.2320  -13.3680 N.ar  108  HIS108     -0.2212
     83  N         -1.6750   21.7880   -8.6450 N.am  109  HIS109     -0.1975
     84  CA        -2.4600   21.9430   -7.4050 C.3   109  HIS109      0.1656
     85  C         -3.4560   23.1090   -7.4660 C.2   109  HIS109      0.2291
     86  O         -3.7640   23.7700   -6.4710 O.2   109  HIS109     -0.2864
     87  CB        -1.5110   22.1640   -6.1780 C.3   109  HIS109      0.0771
     88  CG        -0.2160   21.3900   -6.2660 C.ar  109  HIS109      0.0820
     89  ND1        0.9430   21.9180   -6.6220 N.ar  109  HIS109     -0.2267
     90  CD2       -0.0110   20.0360   -6.0680 C.ar  109  HIS109      0.1154
     91  CE1        1.8330   20.9560   -6.6570 C.ar  109  HIS109      0.1986
     92  NE2        1.2700   19.8280   -6.3290 N.ar  109  HIS109     -0.2212
     93  N         -1.0110   18.4630  -13.7030 N.3   117  CYS117     -0.1221
     94  CA         0.2950   17.8740  -13.8370 C.3   117  CYS117      0.1808
     95  C          0.1260   16.4970  -13.2440 C.2   117  CYS117      0.2602
     96  O         -0.7490   16.2220  -12.4020 O.2   117  CYS117     -0.2717
     97  CB         1.3530   18.6030  -13.0410 C.3   117  CYS117      0.0970
     98  SG         1.3920   20.3490  -13.4860 S.3   117  CYS117     -0.0800
     99  N          0.9700   15.6550  -13.7910 N.am  118  THR118     -0.1939
    100  CA         1.0850   14.2690  -13.3910 C.3   118  THR118      0.2028
    101  C          2.2310   14.2290  -12.3910 C.2   118  THR118      0.2643
    102  O          2.4820   15.2560  -11.7480 O.2   118  THR118     -0.2714
    103  CB         1.3190   13.5680  -14.6910 C.3   118  THR118      0.1808
    104  OG1        0.0380   13.7030  -15.2740 O.3   118  THR118     -0.2208
    105  CG2        1.6960   12.0970  -14.6700 C.3   118  THR118      0.0379
    106  N          2.9470   13.1430  -12.1360 N.am  119  GLY119     -0.1939
    107  CA         4.0900   13.1930  -11.2330 C.3   119  GLY119      0.2014
    108  C          5.2770   13.6970  -12.0190 C.2   119  GLY119      0.2638
    109  O          5.1960   14.7100  -12.7180 O.2   119  GLY119     -0.2714
    110  N          6.4110   13.0340  -11.8820 N.am  120  GLU120     -0.1977
    111  CA         7.5170   13.4110  -12.7250 C.3   120  GLU120      0.1602
    112  C          7.2520   12.5380  -13.9490 C.2   120  GLU120      0.2287
    113  O          6.3660   11.6570  -14.0110 O.2   120  GLU120     -0.2864
    114  CB         8.8510   13.1000  -12.0460 C.3   120  GLU120      0.0415
    115  CG         8.9580   13.9490  -10.7750 C.3   120  GLU120      0.1163
    116  CD         9.9330   13.5120   -9.6760 C.2   120  GLU120      0.3649
    117  OE1       10.3010   14.3730   -8.8600 O.co2 120  GLU120     -0.2457
    118  OE2       10.3120   12.3280   -9.6180 O.co2 120  GLU120     -0.2457
    119  N         16.2850   26.7270   -2.1390 N.3   171  ALA171     -0.1245
    120  CA        15.5180   25.4880   -2.0740 C.3   171  ALA171      0.1562
    121  C         14.9180   25.4970   -0.6820 C.2   171  ALA171      0.2260
    122  O         15.5080   26.1190    0.2190 O.2   171  ALA171     -0.2867
    123  CB        16.3960   24.2610   -2.1940 C.3   171  ALA171      0.0290
    124  N          8.8450   21.6100    1.1130 N.3   174  VAL174     -0.1245
    125  CA         7.4220   21.8660    0.8750 C.3   174  VAL174      0.1561
    126  C          6.5540   20.9650    1.7550 C.2   174  VAL174      0.2260
    127  O          6.7710   19.7500    1.8090 O.2   174  VAL174     -0.2867
    128  CB         7.0430   21.6060   -0.6130 C.3   174  VAL174      0.0252
    129  CG1        5.5820   21.9040   -0.8690 C.3   174  VAL174      0.0019
    130  CG2        7.8720   22.4870   -1.4970 C.3   174  VAL174      0.0019
    131  N          0.9080   24.0750   -0.7690 N.3   179  LEU179     -0.1245
    132  CA         0.2960   23.8730   -2.0720 C.3   179  LEU179      0.1561
    133  C         -0.8990   24.7590   -2.3300 C.2   179  LEU179      0.2260
    134  O         -1.1970   25.1300   -3.4640 O.2   179  LEU179     -0.2867
    135  CB        -0.1790   22.4570   -2.2440 C.3   179  LEU179      0.0270
    136  CG         0.7410   21.2840   -1.9040 C.3   179  LEU179      0.0019
    137  CD1       -0.0700   20.0630   -2.2240 C.3   179  LEU179      0.0001
    138  CD2        2.0810   21.2620   -2.6830 C.3   179  LEU179      0.0001
    139  N          6.4810   17.0580    1.4930 N.3   194  MET194     -0.1230
    140  CA         6.2770   16.5540    0.1640 C.3   194  MET194      0.1702
    141  C          7.5240   16.5220   -0.6760 C.2   194  MET194      0.2593
    142  O          7.4920   15.7990   -1.6640 O.2   194  MET194     -0.2718
    143  CB         5.2690   17.3860   -0.4810 C.3   194  MET194      0.0401
    144  CG         4.0210   17.2650    0.3470 C.3   194  MET194      0.0596
    145  SD         2.7980   17.7020   -0.8570 S.3   194  MET194     -0.1393
    146  CE         1.7410   16.3580   -0.4200 C.3   194  MET194      0.0692
    147  N          8.6170   17.2260   -0.3500 N.am  195  GLY195     -0.1942
    148  CA         9.8720   17.2020   -1.0890 C.3   195  GLY195      0.2014
    149  C         10.6000   18.5340   -0.9160 C.2   195  GLY195      0.2639
    150  O         10.0560   19.4650   -0.3180 O.2   195  GLY195     -0.2714
    151  N         11.8590   18.6160   -1.3300 N.am  196  GLY196     -0.1939
    152  CA        12.6110   19.8520   -1.3720 C.3   196  GLY196      0.2014
    153  C         12.2150   20.5270   -2.6810 C.2   196  GLY196      0.2639
    154  O         11.8900   19.8630   -3.6770 O.2   196  GLY196     -0.2714
    155  N         12.1660   21.8450   -2.7280 N.am  197  HIS197     -0.1959
    156  CA        11.7750   22.5790   -3.9240 C.3   197  HIS197      0.1787
    157  C         12.7260   23.7650   -4.1170 C.2   197  HIS197      0.2620
    158  O         12.9190   24.5720   -3.2080 O.2   197  HIS197     -0.2715
    159  CB        10.3130   23.0870   -3.7990 C.3   197  HIS197      0.0785
    160  CG         9.6720   23.6220   -5.0920 C.ar  197  HIS197      0.0821
    161  ND1        8.8920   24.6880   -5.2330 N.ar  197  HIS197     -0.2267
    162  CD2        9.7830   23.0590   -6.3480 C.ar  197  HIS197      0.1154
    163  CE1        8.5410   24.7760   -6.4950 C.ar  197  HIS197      0.1986
    164  NE2        9.0790   23.7990   -7.1500 N.ar  197  HIS197     -0.2212
    165  N         13.3130   23.8170   -5.3110 N.am  198  ALA198     -0.1977
    166  CA        14.2210   24.8630   -5.7230 C.3   198  ALA198      0.1597
    167  C         13.4530   25.9200   -6.4870 C.2   198  ALA198      0.2287
    168  O         12.6180   25.5880   -7.3320 O.2   198  ALA198     -0.2864
    169  CB        15.2860   24.3060   -6.6200 C.3   198  ALA198      0.0319
    170  N          5.4090   27.0860  -11.2660 N.3   219  TRP219     -0.1241
    171  CA         4.1350   26.4010  -11.3770 C.3   219  TRP219      0.1605
    172  C          3.0860   27.1740  -12.1790 C.2   219  TRP219      0.2264
    173  O          1.8700   27.0350  -12.0000 O.2   219  TRP219     -0.2867
    174  CB         3.6480   26.1080   -9.9570 C.3   219  TRP219      0.0550
    175  CG         4.4320   24.9960   -9.2170 C.ar  219  TRP219      0.0003
    176  CD1        5.5360   24.3420   -9.7430 C.ar  219  TRP219      0.0946
    177  CD2        4.1480   24.5350   -7.9510 C.ar  219  TRP219      0.0152
    178  NE1        5.9410   23.5090   -8.8190 N.ar  219  TRP219     -0.2442
    179  CE2        5.1580   23.5910   -7.7360 C.ar  219  TRP219      0.0810
    180  CE3        3.2080   24.7950   -6.9630 C.ar  219  TRP219      0.0012
    181  CZ2        5.2340   22.8940   -6.5370 C.ar  219  TRP219      0.0191
    182  CZ3        3.2850   24.1090   -5.7500 C.ar  219  TRP219      0.0001
    183  CH2        4.2890   23.1580   -5.5480 C.ar  219  TRP219      0.0015
    184  N         20.3550   27.0180    1.3040 N.3   243  GLU243     -0.1196
    185  CA        20.9470   26.3910    0.1470 C.3   243  GLU243      0.1783
    186  C         20.8810   27.3930   -0.9850 C.2   243  GLU243      0.2306
    187  O         20.3410   27.1520   -2.0580 O.2   243  GLU243     -0.2863
    188  CB        20.1220   25.1150   -0.0290 C.2   243  GLU243      0.0071
    189  CG        20.4700   24.0880   -1.1200 C.2   243  GLU243      0.0834
    190  CD        19.7620   22.7270   -1.0110 C.2   243  GLU243      0.3877
    191  OE1       20.0190   21.8690   -1.8640 O.co2 243  GLU243     -0.2406
    192  OE2       18.9830   22.4980   -0.0750 O.co2 243  GLU243     -0.2406
@<TRIPOS>BOND
     1    11    10    1
     2    11    12    1
     3     4     3    2
     4    10     3   am
     5    14    12   am
     6    14    15    1
     7     3     2    1
     8    25    24    1
     9    24    21    1
    10    19    18    1
    11    18    15    1
    12    17    16    2
    13    12    13    2
    14   104   103    1
    15     2     1    1
    16     2     5    1
    17    15    16    1
    18    16    20   am
    19   103   105    1
    20   103   100    1
    21    21    20    1
    22    21    22    1
    23   113   112    2
    24    49    47   ar
    25    49    48   ar
    26   112   111    1
    27     5     6    1
    28    94    93    1
    29    94    95    1
    30    94    97    1
    31    99   100    1
    32    99    95   am
    33    47    45   ar
    34    98    97    1
    35   100   101    1
    36    82    81   ar
    37    82    80   ar
    38    95    96    2
    39    48    46   ar
    40    22    23    2
    41    22    26   am
    42   111   114    1
    43   111   110    1
    44     6     7    1
    45   109   108    2
    46    81    79   ar
    47    80    78   ar
    48    57    55   am
    49    45    44   ar
    50    45    43   ar
    51   101   106   am
    52   101   102    2
    53    26    27    1
    54    50    51    1
    55   172   173    2
    56   172   171    1
    57   106   107    1
    58   114   115    1
    59   108   110   am
    60   108   107    1
    61    46    43   ar
    62    44    42   ar
    63    43    41   ar
    64    28    29    2
    65    28    27    1
    66    73    74    1
    67    79    78   ar
    68    78    77    1
    69   171   170    1
    70   171   174    1
    71     7     9   am
    72     7     8    2
    73    55    54    1
    74    55    56    2
    75    30    31    1
    76    38    39    2
    77    38    37    1
    78    51    54    1
    79    51    52    1
    80   115   116    1
    81    42    41   ar
    82    41    40    1
    83    31    32    1
    84    31    34    1
    85    74    77    1
    86    74    75    1
    87    33    32    2
    88    58    52   am
    89    58    59    1
    90    32    36   am
    91    61    60    2
    92   174   175    1
    93    36    37    1
    94    52    53    2
    95   176   175   ar
    96   176   178   ar
    97    37    40    1
    98   116   118   ar
    99   116   117   ar
   100    60    59    1
   101    60    62   am
   102   175   177   ar
   103    75    76    2
   104    75    83   am
   105    34    35    1
   106    69    68    2
   107    63    62    1
   108    63    64    1
   109   178   179   ar
   110    83    84    1
   111   177   179   ar
   112   177   180   ar
   113    68    67    1
   114    64    65    2
   115   179   181   ar
   116    67    66    1
   117    67    70    1
   118    85    84    1
   119    85    86    2
   120    84    87    1
   121   168   167    2
   122    66    72    1
   123   164   163   ar
   124   164   162   ar
   125   180   182   ar
   126    91    89   ar
   127    91    92   ar
   128    89    88   ar
   129   169   166    1
   130   181   183   ar
   131    70    71    1
   132   163   161   ar
   133   167   166    1
   134   162   160   ar
   135    92    90   ar
   136    88    87    1
   137    88    90   ar
   138    72    71    1
   139   182   183   ar
   140   166   165    1
   141   165   157   am
   142   161   160   ar
   143   160   159    1
   144   157   156    1
   145   157   158    2
   146   156   159    1
   147   156   155    1
   148   154   153    2
   149   134   133    2
   150   155   153   am
   151   138   136    1
   152   153   152    1
   153   133   132    1
   154   135   132    1
   155   135   136    1
   156   137   136    1
   157   123   120    1
   158   119   120    1
   159   120   121    1
   160   132   131    1
   161   187   186    2
   162   191   190   ar
   163   142   141    2
   164   130   128    1
   165   152   151    1
   166   151   149   am
   167   189   190    1
   168   189   188    2
   169   148   149    1
   170   148   147    1
   171   190   192   ar
   172   186   185    1
   173   149   150    2
   174   129   128    1
   175   145   146    1
   176   145   144    1
   177   121   122    2
   178   141   147   am
   179   141   140    1
   180   128   125    1
   181   143   140    1
   182   143   144    1
   183   188   185    1
   184   185   184    1
   185   140   139    1
   186   125   124    1
   187   125   126    1
   188   126   127    2
