@<TRIPOS>MOLECULE
tmp/1qduQ00.pdb
 106 106 0 0 0
SMALL
GASTEIGER

@<TRIPOS>ATOM
      1  N         60.6150   77.9670   66.3380 N.3    21  VAL21      -0.1231
      2  CA        59.9500   78.7650   65.3100 C.3    21  VAL21       0.1692
      3  C         58.8380   78.0700   64.5020 C.2    21  VAL21       0.2593
      4  O         58.6090   76.8630   64.6190 O.2    21  VAL21      -0.2718
      5  CB        60.9780   79.3580   64.3190 C.3    21  VAL21       0.0266
      6  CG1       62.0430   80.1180   65.0890 C.3    21  VAL21       0.0020
      7  CG2       61.5900   78.2570   63.4590 C.3    21  VAL21       0.0020
      8  N         58.1430   78.8730   63.6970 N.am   22  SER22      -0.1938
      9  CA        57.0510   78.4240   62.8520 C.3    22  SER22       0.2055
     10  C         57.4020   78.8640   61.4390 C.2    22  SER22       0.2643
     11  O         58.0700   79.8740   61.2680 O.2    22  SER22      -0.2714
     12  CB        55.7620   79.0980   63.2970 C.3    22  SER22       0.2130
     13  OG        54.7200   78.1590   63.4160 O.3    22  SER22      -0.2179
     14  N         56.9570   78.1300   60.4250 N.am   23  TYR23      -0.1959
     15  CA        57.2920   78.4900   59.0510 C.3    23  TYR23       0.1771
     16  C         56.1310   78.9720   58.2090 C.2    23  TYR23       0.2619
     17  O         55.0890   78.3190   58.1250 O.2    23  TYR23      -0.2715
     18  CB        57.9420   77.3060   58.3440 C.3    23  TYR23       0.0574
     19  CG        59.3580   77.0480   58.7780 C.ar   23  TYR23      -0.0198
     20  CD1       59.7090   75.8520   59.4140 C.ar   23  TYR23      -0.0009
     21  CD2       60.3490   78.0060   58.5830 C.ar   23  TYR23      -0.0009
     22  CE1       61.0140   75.6180   59.8480 C.ar   23  TYR23       0.0417
     23  CE2       61.6610   77.7820   59.0160 C.ar   23  TYR23       0.0417
     24  CZ        61.9850   76.5880   59.6470 C.ar   23  TYR23       0.1957
     25  OH        63.2780   76.3750   60.0710 O.3    23  TYR23      -0.2866
     26  N         56.3390   80.1090   57.5550 N.am   24  ARG24      -0.1963
     27  CA        55.3310   80.6920   56.6910 C.3    24  ARG24       0.1729
     28  C         55.8920   81.0770   55.3080 C.2    24  ARG24       0.2616
     29  O         56.7120   81.9950   55.1950 O.2    24  ARG24      -0.2715
     30  CB        54.7380   81.9130   57.3860 C.3    24  ARG24       0.0348
     31  CG        54.5020   83.0840   56.4920 C.3    24  ARG24       0.0492
     32  CD        54.4420   84.3010   57.3160 C.3    24  ARG24       0.2205
     33  NE        55.5280   85.1940   57.0000 N.pl3  24  ARG24      -0.0865
     34  CZ        56.1830   85.8760   57.9240 C.cat  24  ARG24       0.5346
     35  NH1       55.8450   85.7460   59.1960 N.pl3  24  ARG24       0.1354
     36  NH2       57.1620   86.7060   57.5860 N.pl3  24  ARG24       0.1354
     37  N         55.4660   80.3700   54.2600 N.am   25  ASN25      -0.1959
     38  CA        55.9370   80.7000   52.9180 C.3    25  ASN25       0.1804
     39  C         55.1340   81.9040   52.4630 C.2    25  ASN25       0.2463
     40  O         53.9330   81.7950   52.2280 O.2    25  ASN25      -0.2730
     41  CB        55.7050   79.5540   51.9290 C.3    25  ASN25       0.1195
     42  CG        56.1070   79.9330   50.4950 C.2    25  ASN25       0.2630
     43  OD1       56.6880   80.9960   50.2570 O.2    25  ASN25      -0.2716
     44  ND2       55.8070   79.0590   49.5420 N.am   25  ASN25      -0.0877
     45  N         55.7880   83.0600   52.2930 N.am   26  PRO26      -0.2727
     46  CA        55.0290   84.2360   51.8640 C.3    26  PRO26       0.1402
     47  C         54.3190   84.0200   50.5360 C.2    26  PRO26       0.2269
     48  O         53.6530   84.9200   50.0290 O.2    26  PRO26      -0.2865
     49  CB        56.0840   85.3420   51.7860 C.3    26  PRO26       0.0296
     50  CG        57.3940   84.6210   51.6700 C.3    26  PRO26       0.0237
     51  CD        57.2260   83.3440   52.4330 C.3    26  PRO26       0.0939
     52  N         52.3420   81.0440   49.9500 N.3    28  GLU28      -0.1245
     53  CA        51.2490   80.0820   50.0340 C.3    28  GLU28       0.1567
     54  C         50.7250   79.8560   51.4320 C.2    28  GLU28       0.2260
     55  O         49.8560   79.0140   51.6430 O.2    28  GLU28      -0.2867
     56  CB        51.6540   78.7510   49.4320 C.3    28  GLU28       0.0388
     57  CG        53.0900   78.4230   49.6240 C.3    28  GLU28       0.1160
     58  CD        53.4320   77.0790   49.0270 C.2    28  GLU28       0.3649
     59  OE1       53.0730   76.8440   47.8470 O.co2  28  GLU28      -0.2457
     60  OE2       54.0530   76.2560   49.7400 O.co2  28  GLU28      -0.2457
     61  N         51.2720   79.5120   55.8990 N.3    30  THR30      -0.1203
     62  CA        52.0590   78.7890   56.8850 C.3    30  THR30       0.1994
     63  C         51.8290   77.2860   56.7610 C.2    30  THR30       0.2617
     64  O         50.7100   76.8420   56.4880 O.2    30  THR30      -0.2717
     65  CB        51.6990   79.2100   58.3210 C.3    30  THR30       0.1784
     66  OG1       50.3350   78.8660   58.6050 O.3    30  THR30      -0.2211
     67  CG2       51.8840   80.6820   58.4900 C.3    30  THR30       0.0376
     68  N         52.8980   76.5180   56.9730 N.am   31  TRP31      -0.1975
     69  CA        52.8680   75.0620   56.9120 C.3    31  TRP31       0.1640
     70  C         51.6950   74.5080   57.7030 C.2    31  TRP31       0.2290
     71  O         50.8930   73.7320   57.1830 O.2    31  TRP31      -0.2864
     72  CB        54.1450   74.4900   57.5190 C.3    31  TRP31       0.0576
     73  CG        55.3810   74.8220   56.8010 C.ar   31  TRP31       0.0006
     74  CD1       55.5040   75.6340   55.7250 C.ar   31  TRP31       0.0946
     75  CD2       56.6910   74.3210   57.0840 C.ar   31  TRP31       0.0152
     76  NE1       56.8120   75.6760   55.3070 N.ar   31  TRP31      -0.2442
     77  CE2       57.5650   74.8780   56.1240 C.ar   31  TRP31       0.0810
     78  CE3       57.2150   73.4550   58.0560 C.ar   31  TRP31       0.0012
     79  CZ2       58.9390   74.5970   56.1010 C.ar   31  TRP31       0.0191
     80  CZ3       58.5850   73.1740   58.0360 C.ar   31  TRP31       0.0001
     81  CH2       59.4290   73.7460   57.0610 C.ar   31  TRP31       0.0015
     82  N         58.1480   68.4390   56.1420 N.3    64  LYS64      -0.1231
     83  CA        58.5830   69.6370   55.4320 C.3    64  LYS64       0.1693
     84  C         59.9670   69.9940   55.9720 C.2    64  LYS64       0.2592
     85  O         60.2280   69.8500   57.1660 O.2    64  LYS64      -0.2718
     86  CB        57.6080   70.7870   55.6700 C.3    64  LYS64       0.0285
     87  CG        56.1650   70.3940   55.4700 C.3    64  LYS64       0.0035
     88  CD        55.2930   71.6010   55.2120 C.3    64  LYS64       0.0206
     89  CE        54.1160   71.2310   54.3410 C.3    64  LYS64       0.1093
     90  NZ        54.4920   71.4000   52.9020 N.3    64  LYS64      -0.1314
     91  N         60.8620   70.4440   55.0980 N.am   65  ASP65      -0.1960
     92  CA        62.2080   70.7940   55.5260 C.3    65  ASP65       0.1840
     93  C         62.5580   72.2230   55.1370 C.2    65  ASP65       0.2622
     94  O         62.0060   72.7700   54.1850 O.2    65  ASP65      -0.2715
     95  CB        63.2390   69.8340   54.8980 C.3    65  ASP65       0.1450
     96  CG        63.1070   68.3850   55.4030 C.2    65  ASP65       0.3671
     97  OD1       63.9050   67.9560   56.2710 O.co2  65  ASP65      -0.2456
     98  OD2       62.2070   67.6630   54.9230 O.co2  65  ASP65      -0.2456
     99  N         63.4630   72.8290   55.8990 N.am   66  ASP66      -0.1971
    100  CA        63.9470   74.1730   55.6160 C.3    66  ASP66       0.1709
    101  C         65.4460   73.9780   55.4650 C.2    66  ASP66       0.2293
    102  O         66.2040   74.1420   56.4170 O.2    66  ASP66      -0.2864
    103  CB        63.6800   75.1260   56.7730 C.3    66  ASP66       0.1436
    104  CG        64.6310   76.3070   56.7700 C.2    66  ASP66       0.3671
    105  OD1       64.9890   76.7690   55.6580 O.co2  66  ASP66      -0.2456
    106  OD2       65.0260   76.7620   57.8720 O.co2  66  ASP66      -0.2456
@<TRIPOS>BOND
     1    59    58   ar
     2    58    57    1
     3    58    60   ar
     4    56    57    1
     5    56    53    1
     6    44    42   am
     7    52    53    1
     8    48    47    2
     9    53    54    1
    10    43    42    2
    11    42    41    1
    12    47    46    1
    13    54    55    2
    14    50    49    1
    15    50    51    1
    16    49    46    1
    17    46    45    1
    18    41    38    1
    19    40    39    2
    20    45    51    1
    21    45    39   am
    22    39    38    1
    23    90    89    1
    24    38    37    1
    25    94    93    2
    26    37    28   am
    27    89    88    1
    28    95    96    1
    29    95    92    1
    30    98    96   ar
    31    91    92    1
    32    91    84   am
    33    93    92    1
    34    93    99   am
    35    29    28    2
    36    88    87    1
    37    76    74   ar
    38    76    77   ar
    39    28    27    1
    40    96    97   ar
    41    83    86    1
    42    83    84    1
    43    83    82    1
    44   101   100    1
    45   101   102    2
    46    87    86    1
    47   100    99    1
    48   100   103    1
    49   105   104   ar
    50    74    73   ar
    51    61    62    1
    52    84    85    2
    53    79    77   ar
    54    79    81   ar
    55    77    75   ar
    56    64    63    2
    57    31    32    1
    58    31    30    1
    59    27    30    1
    60    27    26    1
    61    63    62    1
    62    63    68   am
    63   104   103    1
    64   104   106   ar
    65    73    75   ar
    66    73    72    1
    67    62    65    1
    68    69    68    1
    69    69    72    1
    70    69    70    1
    71    33    32    1
    72    33    34    2
    73    81    80   ar
    74    75    78   ar
    75    71    70    2
    76    26    16   am
    77    36    34    1
    78    34    35    1
    79    80    78   ar
    80    17    16    2
    81    16    15    1
    82    65    67    1
    83    65    66    1
    84    18    19    1
    85    18    15    1
    86    21    19   ar
    87    21    23   ar
    88    19    20   ar
    89    23    24   ar
    90    15    14    1
    91    20    22   ar
    92    24    22   ar
    93    24    25    1
    94    14    10   am
    95    11    10    2
    96    10     9    1
    97     9    12    1
    98     9     8    1
    99    12    13    1
   100     7     5    1
   101     8     3   am
   102     5     6    1
   103     5     2    1
   104     3     4    2
   105     3     2    1
   106     2     1    1
