@<TRIPOS>MOLECULE
tmp/1qduP00.pdb
 94 91 0 0 0
SMALL
GASTEIGER

@<TRIPOS>ATOM
      1  N         59.7490   91.1610   60.9580 N.3    37  ARG37      -0.1231
      2  CA        59.1560   91.4360   59.6740 C.3    37  ARG37       0.1694
      3  C         57.6460   91.2810   59.7050 C.2    37  ARG37       0.2592
      4  O         57.0730   90.7070   60.6250 O.2    37  ARG37      -0.2718
      5  CB        59.7300   90.4940   58.6150 C.3    37  ARG37       0.0321
      6  CG        61.2310   90.5960   58.4360 C.3    37  ARG37       0.0489
      7  CD        61.6760   90.0750   57.0720 C.3    37  ARG37       0.2205
      8  NE        63.1330   90.1070   56.9650 N.pl3  37  ARG37      -0.0865
      9  CZ        63.8220   89.7500   55.8820 C.cat  37  ARG37       0.5346
     10  NH1       63.1760   89.3270   54.7940 N.pl3  37  ARG37       0.1354
     11  NH2       65.1590   89.8070   55.8890 N.pl3  37  ARG37       0.1354
     12  N         57.0070   91.8130   58.6820 N.am   38  ASP38      -0.1960
     13  CA        55.5780   91.6840   58.5530 C.3    38  ASP38       0.1840
     14  C         55.3250   90.2440   58.0910 C.2    38  ASP38       0.2622
     15  O         56.1600   89.6490   57.4230 O.2    38  ASP38      -0.2715
     16  CB        55.0710   92.6760   57.5070 C.3    38  ASP38       0.1450
     17  CG        55.1130   94.1170   57.9990 C.2    38  ASP38       0.3671
     18  OD1       55.2480   94.3140   59.2390 O.co2  38  ASP38      -0.2456
     19  OD2       55.0080   95.0350   57.1450 O.co2  38  ASP38      -0.2456
     20  N         54.1690   89.6910   58.4180 N.am   39  ARG39      -0.1963
     21  CA        53.8860   88.3170   58.0410 C.3    39  ARG39       0.1729
     22  C         53.3170   88.1480   56.6340 C.2    39  ARG39       0.2616
     23  O         52.1430   87.7930   56.4530 O.2    39  ARG39      -0.2715
     24  CB        52.9480   87.6920   59.0730 C.3    39  ARG39       0.0348
     25  CG        53.0970   88.2980   60.4640 C.3    39  ARG39       0.0492
     26  CD        53.2900   87.2320   61.5270 C.3    39  ARG39       0.2205
     27  NE        52.8320   85.9300   61.0670 N.pl3  39  ARG39      -0.0865
     28  CZ        51.5580   85.6080   60.8860 C.cat  39  ARG39       0.5346
     29  NH1       50.6080   86.5060   61.1310 N.pl3  39  ARG39       0.1354
     30  NH2       51.2280   84.3980   60.4460 N.pl3  39  ARG39       0.1354
     31  N         54.1540   88.3800   55.6300 N.am   40  ASN40      -0.1972
     32  CA        53.7030   88.2530   54.2560 C.3    40  ASN40       0.1688
     33  C         53.2600   86.8410   53.9370 C.2    40  ASN40       0.2292
     34  O         54.0650   85.9230   53.9510 O.2    40  ASN40      -0.2864
     35  CB        54.8130   88.6950   53.3160 C.3    40  ASN40       0.1181
     36  CG        55.1950   90.1470   53.5310 C.2    40  ASN40       0.2629
     37  OD1       54.3590   90.9650   53.9160 O.2    40  ASN40      -0.2716
     38  ND2       56.4550   90.4750   53.2880 N.am   40  ASN40      -0.0877
     39  N         49.9350   85.3390   64.0780 N.3    95  SER95      -0.1202
     40  CA        50.7630   86.4900   64.4240 C.3    95  SER95       0.2020
     41  C         52.1390   86.0070   64.8660 C.2    95  SER95       0.2619
     42  O         52.3790   84.8010   64.9080 O.2    95  SER95      -0.2717
     43  CB        50.0930   87.2660   65.5600 C.3    95  SER95       0.2103
     44  OG        50.7950   88.4570   65.8480 O.3    95  SER95      -0.2182
     45  N         53.0480   86.9340   65.1730 N.am   96  HIS96      -0.1961
     46  CA        54.3700   86.5370   65.6600 C.3    96  HIS96       0.1787
     47  C         54.1340   86.1330   67.1040 C.2    96  HIS96       0.2620
     48  O         53.0870   86.4620   67.6940 O.2    96  HIS96      -0.2715
     49  CB        55.3660   87.6900   65.6440 C.3    96  HIS96       0.0785
     50  CG        55.8940   88.0050   64.2840 C.ar   96  HIS96       0.0821
     51  ND1       56.0550   87.0440   63.3130 N.ar   96  HIS96      -0.2267
     52  CD2       56.2230   89.1830   63.7050 C.ar   96  HIS96       0.1154
     53  CE1       56.4560   87.6140   62.1920 C.ar   96  HIS96       0.1986
     54  NE2       56.5640   88.9130   62.4020 N.ar   96  HIS96      -0.2212
     55  N         55.0930   85.4260   67.6870 N.am   97  GLY97      -0.1954
     56  CA        54.9240   85.0030   69.0630 C.3    97  GLY97       0.1869
     57  C         56.2230   84.6360   69.7310 C.2    97  GLY97       0.2309
     58  O         57.2970   84.7760   69.1510 O.2    97  GLY97      -0.2863
     59  N         48.9200   80.2550   65.3840 N.3   137  GLN137     -0.1231
     60  CA        49.9640   80.1190   64.4040 C.3   137  GLN137      0.1698
     61  C         50.8640   81.3100   64.6450 C.2   137  GLN137      0.2592
     62  O         50.6150   82.4130   64.1570 O.2   137  GLN137     -0.2718
     63  CB        49.3680   80.1470   62.9950 C.3   137  GLN137      0.0381
     64  CG        50.3610   80.4430   61.9020 C.3   137  GLN137      0.0905
     65  CD        51.5760   79.5420   61.9610 C.2   137  GLN137      0.2608
     66  OE1       51.6650   78.5630   61.2320 O.2   137  GLN137     -0.2717
     67  NE2       52.5210   79.8690   62.8280 N.am  137  GLN137     -0.0878
     68  N         51.8890   81.0770   65.4530 N.am  138  ALA138     -0.1966
     69  CA        52.8840   82.0840   65.7840 C.3   138  ALA138      0.1728
     70  C         54.1720   81.3070   66.0740 C.2   138  ALA138      0.2616
     71  O         54.2580   80.1090   65.7910 O.2   138  ALA138     -0.2715
     72  CB        52.4450   82.8750   67.0100 C.3   138  ALA138      0.0334
     73  N         55.1760   81.9840   66.6080 N.am  139  CYS139     -0.1968
     74  CA        56.4110   81.3220   66.9640 C.3   139  CYS139      0.1712
     75  C         56.3710   81.2010   68.4700 C.2   139  CYS139      0.2296
     76  O         55.6350   81.9330   69.1320 O.2   139  CYS139     -0.2864
     77  CB        57.6000   82.1750   66.5660 C.3   139  CYS139      0.0983
     78  SG        58.0440   82.0300   64.8200 S.3   139  CYS139     -0.0798
     79  N         59.4620   80.8800   70.1950 N.3   141  GLY141     -0.1225
     80  CA        60.8490   81.0940   70.5780 C.3   141  GLY141      0.1811
     81  C         61.6450   81.2560   69.3040 C.2   141  GLY141      0.2280
     82  O         61.0420   81.3050   68.2380 O.2   141  GLY141     -0.2866
     83  N         65.3030   76.2830   66.2620 N.3   144  TYR144     -0.1241
     84  CA        64.9610   75.6100   65.0220 C.3   144  TYR144      0.1605
     85  C         64.8840   74.1550   65.3680 C.2   144  TYR144      0.2264
     86  O         65.8160   73.5920   65.9200 O.2   144  TYR144     -0.2867
     87  CB        66.0390   75.8260   63.9690 C.3   144  TYR144      0.0534
     88  CG        65.9840   77.1930   63.3460 C.ar  144  TYR144     -0.0201
     89  CD1       66.5270   78.3030   64.0030 C.ar  144  TYR144     -0.0009
     90  CD2       65.3830   77.3910   62.1060 C.ar  144  TYR144     -0.0009
     91  CE1       66.4740   79.5900   63.4360 C.ar  144  TYR144      0.0417
     92  CE2       65.3240   78.6720   61.5270 C.ar  144  TYR144      0.0417
     93  CZ        65.8730   79.7630   62.2000 C.ar  144  TYR144      0.1957
     94  OH        65.8300   81.0150   61.6330 O.3   144  TYR144     -0.2866
@<TRIPOS>BOND
     1    38    36   am
     2    35    36    1
     3    35    32    1
     4    36    37    2
     5    33    34    2
     6    33    32    1
     7    32    31    1
     8    10     9    1
     9    31    22   am
    10     9    11    1
    11     9     8    2
    12    23    22    2
    13    22    21    1
    14     8     7    1
    15     7     6    1
    16    19    17   ar
    17    15    14    2
    18    16    17    1
    19    16    13    1
    20    17    18   ar
    21    21    20    1
    22    21    24    1
    23    14    20   am
    24    14    13    1
    25     6     5    1
    26    13    12    1
    27     5     2    1
    28    12     3   am
    29    24    25    1
    30     2     3    1
    31     2     1    1
    32     3     4    2
    33    30    28    1
    34    25    26    1
    35    28    27    2
    36    28    29    1
    37    27    26    1
    38    66    65    2
    39    92    90   ar
    40    92    93   ar
    41    94    93    1
    42    64    65    1
    43    64    63    1
    44    65    67   am
    45    90    88   ar
    46    53    54   ar
    47    53    51   ar
    48    93    91   ar
    49    54    52   ar
    50    63    60    1
    51    51    50   ar
    52    88    87    1
    53    88    89   ar
    54    91    89   ar
    55    52    50   ar
    56    87    84    1
    57    39    40    1
    58    62    61    2
    59    50    49    1
    60    60    61    1
    61    60    59    1
    62    40    41    1
    63    40    43    1
    64    61    68   am
    65    78    77    1
    66    41    42    2
    67    41    45   am
    68    84    85    1
    69    84    83    1
    70    45    46    1
    71    85    86    2
    72    68    69    1
    73    43    44    1
    74    49    46    1
    75    46    47    1
    76    69    70    1
    77    69    72    1
    78    71    70    2
    79    70    73   am
    80    77    74    1
    81    73    74    1
    82    74    75    1
    83    47    55   am
    84    47    48    2
    85    55    56    1
    86    82    81    2
    87    75    76    2
    88    56    57    1
    89    58    57    2
    90    81    80    1
    91    79    80    1
