@<TRIPOS>MOLECULE
tmp/1qf0A00.pdb
 210 207 0 0 0
SMALL
GASTEIGER

@<TRIPOS>ATOM
      1  N         29.4640   32.6840    2.3570 N.3   110  TYR110     -0.1227
      2  CA        30.0360   33.2290    1.1390 C.3   110  TYR110      0.1736
      3  C         31.1300   34.2520    1.4620 C.2   110  TYR110      0.2595
      4  O         30.8750   35.2740    2.1050 O.2   110  TYR110     -0.2718
      5  CB        28.9150   33.8260    0.3010 C.3   110  TYR110      0.0548
      6  CG        29.3590   34.3180   -1.0290 C.ar  110  TYR110     -0.0200
      7  CD1       29.8570   33.4350   -1.9840 C.ar  110  TYR110     -0.0009
      8  CD2       29.3230   35.6730   -1.3270 C.ar  110  TYR110     -0.0009
      9  CE1       30.3180   33.8950   -3.2070 C.ar  110  TYR110      0.0417
     10  CE2       29.7760   36.1450   -2.5380 C.ar  110  TYR110      0.0417
     11  CZ        30.2770   35.2560   -3.4760 C.ar  110  TYR110      0.1957
     12  OH        30.7590   35.7380   -4.6720 O.3   110  TYR110     -0.2866
     13  N         32.3550   33.9600    1.0260 N.am  111  ASN111     -0.1960
     14  CA        33.5110   34.8180    1.2970 C.3   111  ASN111      0.1819
     15  C         33.7850   35.8530    0.2270 C.2   111  ASN111      0.2621
     16  O         34.8490   35.8570   -0.3960 O.2   111  ASN111     -0.2715
     17  CB        34.7790   33.9800    1.5020 C.3   111  ASN111      0.1195
     18  CG        34.7640   33.2030    2.7960 C.2   111  ASN111      0.2630
     19  OD1       34.4140   33.7210    3.8600 O.2   111  ASN111     -0.2716
     20  ND2       35.1550   31.9490    2.7170 N.am  111  ASN111     -0.0877
     21  N         32.8260   36.7300    0.0010 N.am  112  ASN112     -0.1958
     22  CA        33.0170   37.7640   -0.9920 C.3   112  ASN112      0.1819
     23  C         31.8880   38.7830   -0.9450 C.2   112  ASN112      0.2621
     24  O         30.9010   38.6280   -0.2050 O.2   112  ASN112     -0.2715
     25  CB        33.1080   37.1380   -2.3910 C.3   112  ASN112      0.1195
     26  CG        34.1840   37.7730   -3.2390 C.2   112  ASN112      0.2630
     27  OD1       34.4980   38.9480   -3.0790 O.2   112  ASN112     -0.2716
     28  ND2       34.7730   36.9940   -4.1280 N.am  112  ASN112     -0.0877
     29  N         32.0750   39.8430   -1.7150 N.am  113  ALA113     -0.1963
     30  CA        31.1100   40.9170   -1.8640 C.3   113  ALA113      0.1728
     31  C         31.3720   41.3580   -3.2940 C.2   113  ALA113      0.2616
     32  O         32.4720   41.1480   -3.8100 O.2   113  ALA113     -0.2715
     33  CB        31.3950   42.0340   -0.8980 C.3   113  ALA113      0.0334
     34  N         30.3680   41.9110   -3.9580 N.am  114  PHE114     -0.1960
     35  CA        30.5470   42.3280   -5.3350 C.3   114  PHE114      0.1771
     36  C         29.4420   43.2650   -5.8200 C.2   114  PHE114      0.2619
     37  O         28.4090   43.4360   -5.1630 O.2   114  PHE114     -0.2715
     38  CB        30.6400   41.0930   -6.2610 C.3   114  PHE114      0.0574
     39  CG        29.4410   40.1410   -6.1840 C.ar  114  PHE114     -0.0200
     40  CD1       29.4000   39.1390   -5.2060 C.ar  114  PHE114     -0.0042
     41  CD2       28.3890   40.2600   -7.1010 C.ar  114  PHE114     -0.0042
     42  CE1       28.3100   38.2600   -5.1460 C.ar  114  PHE114     -0.0003
     43  CE2       27.3000   39.3800   -7.0410 C.ar  114  PHE114     -0.0003
     44  CZ        27.2610   38.3800   -6.0640 C.ar  114  PHE114     -0.0000
     45  N         29.7560   43.8620   -6.9530 N.am  115  TRP115     -0.1974
     46  CA        28.8410   44.7100   -7.7180 C.3   115  TRP115      0.1640
     47  C         28.4520   43.8560   -8.9060 C.2   115  TRP115      0.2290
     48  O         29.3170   43.3450   -9.6270 O.2   115  TRP115     -0.2864
     49  CB        29.5610   45.9920   -8.1640 C.3   115  TRP115      0.0576
     50  CG        28.7990   46.7640   -9.2490 C.ar  115  TRP115      0.0006
     51  CD1       29.0630   46.7900  -10.5640 C.ar  115  TRP115      0.0946
     52  CD2       27.6690   47.5910   -9.0170 C.ar  115  TRP115      0.0152
     53  NE1       28.0810   47.6330  -11.1760 N.ar  115  TRP115     -0.2442
     54  CE2       27.2700   48.0890  -10.2510 C.ar  115  TRP115      0.0810
     55  CE3       26.9520   47.9490   -7.8690 C.ar  115  TRP115      0.0012
     56  CZ2       26.1660   48.9360  -10.4100 C.ar  115  TRP115      0.0191
     57  CZ3       25.8460   48.8060   -8.0390 C.ar  115  TRP115      0.0001
     58  CH2       25.4720   49.2750   -9.2520 C.ar  115  TRP115      0.0015
     59  N         37.8720   32.9960    7.2140 N.3   129  THR129     -0.1203
     60  CA        38.5410   33.8290    6.2340 C.3   129  THR129      0.1994
     61  C         37.9570   35.2350    6.3730 C.2   129  THR129      0.2617
     62  O         38.6870   36.2090    6.4080 O.2   129  THR129     -0.2717
     63  CB        38.2830   33.3120    4.7910 C.3   129  THR129      0.1784
     64  OG1       38.5010   31.8990    4.7460 O.3   129  THR129     -0.2211
     65  CG2       39.2190   33.9800    3.7880 C.3   129  THR129      0.0376
     66  N         36.6410   35.3170    6.5370 N.am  130  PHE130     -0.1975
     67  CA        35.9560   36.5920    6.6400 C.3   130  PHE130      0.1639
     68  C         34.7590   36.5180    7.5980 C.2   130  PHE130      0.2290
     69  O         34.1820   35.4450    7.8160 O.2   130  PHE130     -0.2864
     70  CB        35.3300   36.9680    5.2850 C.3   130  PHE130      0.0560
     71  CG        36.2830   37.5190    4.2300 C.ar  130  PHE130     -0.0200
     72  CD1       36.8410   38.7920    4.3820 C.ar  130  PHE130     -0.0042
     73  CD2       36.5750   36.7520    3.0980 C.ar  130  PHE130     -0.0042
     74  CE1       37.6890   39.3030    3.3920 C.ar  130  PHE130     -0.0003
     75  CE2       37.4190   37.2640    2.1060 C.ar  130  PHE130     -0.0003
     76  CZ        37.9750   38.5410    2.2520 C.ar  130  PHE130     -0.0000
     77  N         31.1710   40.7540    5.2270 N.3   133  LEU133     -0.1245
     78  CA        31.9280   41.7330    4.4560 C.3   133  LEU133      0.1561
     79  C         31.5330   43.2140    4.4910 C.2   133  LEU133      0.2260
     80  O         32.3880   44.0880    4.3010 O.2   133  LEU133     -0.2867
     81  CB        32.1610   41.2170    3.0290 C.3   133  LEU133      0.0270
     82  CG        33.2140   40.1030    3.0400 C.3   133  LEU133      0.0019
     83  CD1       32.5570   38.7370    3.1480 C.3   133  LEU133      0.0001
     84  CD2       34.1240   40.2020    1.8120 C.3   133  LEU133      0.0001
     85  N         36.1040   49.9340    3.6370 N.3   138  ASP138     -0.1225
     86  CA        36.8660   49.8880    2.3900 C.3   138  ASP138      0.1805
     87  C         36.2670   48.8620    1.4330 C.2   138  ASP138      0.2597
     88  O         36.4130   48.9900    0.2260 O.2   138  ASP138     -0.2718
     89  CB        38.3950   49.7160    2.5950 C.3   138  ASP138      0.1424
     90  CG        38.7770   48.4770    3.3910 C.2   138  ASP138      0.3668
     91  OD1       37.9140   47.6320    3.7090 O.co2 138  ASP138     -0.2456
     92  OD2       39.9810   48.3490    3.7250 O.co2 138  ASP138     -0.2456
     93  N         35.5290   47.8930    1.9750 N.am  139  VAL139     -0.1980
     94  CA        34.8500   46.8790    1.1590 C.3   139  VAL139      0.1595
     95  C         33.6380   47.5180    0.4610 C.2   139  VAL139      0.2287
     96  O         33.4750   47.3910   -0.7560 O.2   139  VAL139     -0.2864
     97  CB        34.3290   45.6780    2.0120 C.3   139  VAL139      0.0276
     98  CG1       33.6110   44.6490    1.1160 C.3   139  VAL139      0.0022
     99  CG2       35.4680   45.0240    2.7640 C.3   139  VAL139      0.0022
    100  N         34.7140   50.0130   -2.0460 N.3   142  HIS142     -0.1226
    101  CA        35.3080   49.2790   -3.1690 C.3   142  HIS142      0.1752
    102  C         34.1990   48.8100   -4.1380 C.2   142  HIS142      0.2595
    103  O         34.3160   48.9700   -5.3490 O.2   142  HIS142     -0.2718
    104  CB        36.1040   48.0760   -2.6350 C.3   142  HIS142      0.0759
    105  CG        36.5810   47.1210   -3.6910 C.ar  142  HIS142      0.0818
    106  ND1       37.9050   46.9280   -4.0200 N.ar  142  HIS142     -0.2268
    107  CD2       35.8830   46.2600   -4.4780 C.ar  142  HIS142      0.1154
    108  CE1       37.9650   45.9850   -4.9690 C.ar  142  HIS142      0.1986
    109  NE2       36.7570   45.5430   -5.2880 N.ar  142  HIS142     -0.2212
    110  N         33.1400   48.2080   -3.6060 N.am  143  GLU143     -0.1979
    111  CA        32.0400   47.7210   -4.4370 C.3   143  GLU143      0.1602
    112  C         31.2700   48.8430   -5.1230 C.2   143  GLU143      0.2287
    113  O         30.9820   48.7610   -6.3240 O.2   143  GLU143     -0.2864
    114  CB        31.0700   46.8510   -3.6290 C.3   143  GLU143      0.0415
    115  CG        31.7160   45.6860   -2.8650 C.3   143  GLU143      0.1163
    116  CD        32.6220   44.8010   -3.7240 C.2   143  GLU143      0.3649
    117  OE1       32.5480   44.8170   -4.9730 O.co2 143  GLU143     -0.2457
    118  OE2       33.4320   44.0830   -3.1200 O.co2 143  GLU143     -0.2457
    119  N         32.8460   50.3420   -8.1240 N.3   146  HIS146     -0.1241
    120  CA        32.7070   49.5220   -9.3430 C.3   146  HIS146      0.1621
    121  C         31.5280   50.0410  -10.1710 C.2   146  HIS146      0.2264
    122  O         31.5520   50.0130  -11.4080 O.2   146  HIS146     -0.2867
    123  CB        32.4870   48.0530   -8.9940 C.3   146  HIS146      0.0745
    124  CG        33.8030   47.3040   -8.8070 C.ar  146  HIS146      0.0817
    125  ND1       34.8060   47.3260   -9.7720 N.ar  146  HIS146     -0.2268
    126  CD2       34.2710   46.5400   -7.7890 C.ar  146  HIS146      0.1154
    127  CE1       35.8220   46.6120   -9.3240 C.ar  146  HIS146      0.1986
    128  NE2       35.5200   46.1380   -8.1410 N.ar  146  HIS146     -0.2212
    129  N         36.3860   43.7740  -17.2790 N.3   157  TYR157     -0.1241
    130  CA        36.9060   43.0210  -16.1540 C.3   157  TYR157      0.1605
    131  C         37.8400   41.8580  -16.4510 C.2   157  TYR157      0.2264
    132  O         37.5700   40.7290  -16.0620 O.2   157  TYR157     -0.2867
    133  CB        35.7650   42.5530  -15.2560 C.3   157  TYR157      0.0534
    134  CG        36.1790   42.3710  -13.8090 C.ar  157  TYR157     -0.0201
    135  CD1       36.5480   43.4680  -13.0250 C.ar  157  TYR157     -0.0009
    136  CD2       36.1290   41.1180  -13.2020 C.ar  157  TYR157     -0.0009
    137  CE1       36.8460   43.3180  -11.6720 C.ar  157  TYR157      0.0417
    138  CE2       36.4220   40.9610  -11.8540 C.ar  157  TYR157      0.0417
    139  CZ        36.7760   42.0650  -11.1000 C.ar  157  TYR157      0.1957
    140  OH        37.0310   41.9200   -9.7650 O.3   157  TYR157     -0.2866
    141  N         39.9300   47.0470  -10.7050 N.3   166  GLU166     -0.1245
    142  CA        40.1050   46.6180   -9.3180 C.3   166  GLU166      0.1567
    143  C         40.8900   47.6230   -8.4680 C.2   166  GLU166      0.2260
    144  O         40.4900   47.9210   -7.3480 O.2   166  GLU166     -0.2867
    145  CB        40.7800   45.2430   -9.2590 C.3   166  GLU166      0.0388
    146  CG        39.8090   44.0870   -9.2790 C.3   166  GLU166      0.1160
    147  CD        38.8920   44.0960   -8.0770 C.2   166  GLU166      0.3649
    148  OE1       39.3860   44.1780   -6.9310 O.co2 166  GLU166     -0.2457
    149  OE2       37.6550   44.0270   -8.2530 O.co2 166  GLU166     -0.2457
    150  N         43.8840   46.8600    2.7310 N.3   188  ILE188     -0.1231
    151  CA        42.5670   46.5220    2.2010 C.3   188  ILE188      0.1692
    152  C         41.8960   45.3420    2.9050 C.2   188  ILE188      0.2592
    153  O         42.4230   44.2340    2.8930 O.2   188  ILE188     -0.2718
    154  CB        42.6460   46.2060    0.6780 C.3   188  ILE188      0.0266
    155  CG1       43.2190   47.4050   -0.0820 C.3   188  ILE188      0.0019
    156  CG2       41.2570   45.8890    0.1200 C.3   188  ILE188      0.0020
    157  CD1       42.3600   48.6490    0.0140 C.3   188  ILE188      0.0001
    158  N         40.7410   45.5940    3.5200 N.am  189  GLY189     -0.1957
    159  CA        39.9720   44.5470    4.1730 C.3   189  GLY189      0.1869
    160  C         40.3940   44.0900    5.5440 C.2   189  GLY189      0.2309
    161  O         39.9270   43.0560    6.0340 O.2   189  GLY189     -0.2863
    162  N         38.7240   40.7420    7.4280 N.3   193  TYR193     -0.1241
    163  CA        39.5730   39.6260    7.0630 C.3   193  TYR193      0.1605
    164  C         40.1640   38.8880    8.2540 C.2   193  TYR193      0.2264
    165  O         40.6400   39.5060    9.2110 O.2   193  TYR193     -0.2867
    166  CB        40.6940   40.1210    6.1690 C.3   193  TYR193      0.0534
    167  CG        41.4920   39.0270    5.5200 C.ar  193  TYR193     -0.0201
    168  CD1       40.8920   38.1380    4.6260 C.ar  193  TYR193     -0.0009
    169  CD2       42.8640   38.9070    5.7580 C.ar  193  TYR193     -0.0009
    170  CE1       41.6410   37.1560    3.9750 C.ar  193  TYR193      0.0417
    171  CE2       43.6250   37.9300    5.1100 C.ar  193  TYR193      0.0417
    172  CZ        43.0080   37.0620    4.2170 C.ar  193  TYR193      0.1957
    173  OH        43.7640   36.1380    3.5370 O.3   193  TYR193     -0.2866
    174  N         43.6960   41.7290    3.5080 N.3   202  LEU202     -0.1231
    175  CA        43.6080   40.9830    2.2570 C.3   202  LEU202      0.1693
    176  C         44.7040   41.4530    1.3010 C.2   202  LEU202      0.2591
    177  O         45.4450   40.6460    0.7410 O.2   202  LEU202     -0.2718
    178  CB        42.2080   41.1480    1.6380 C.3   202  LEU202      0.0284
    179  CG        41.9190   40.3350    0.3790 C.3   202  LEU202      0.0019
    180  CD1       42.1830   38.8690    0.6640 C.3   202  LEU202      0.0001
    181  CD2       40.4920   40.5410   -0.0750 C.3   202  LEU202      0.0001
    182  N         44.7940   42.7630    1.1120 N.am  203  ARG203     -0.1980
    183  CA        45.8050   43.3470    0.2360 C.3   203  ARG203      0.1597
    184  C         46.3940   44.5420    0.9560 C.2   203  ARG203      0.2287
    185  O         45.8470   44.9920    1.9650 O.2   203  ARG203     -0.2864
    186  CB        45.1830   43.8160   -1.0920 C.3   203  ARG203      0.0334
    187  CG        44.6950   42.7010   -2.0040 C.3   203  ARG203      0.0492
    188  CD        44.1230   43.2610   -3.3020 C.3   203  ARG203      0.2205
    189  NE        42.8240   43.9210   -3.1500 N.pl3 203  ARG203     -0.0865
    190  CZ        41.6530   43.2860   -3.0360 C.cat 203  ARG203      0.5346
    191  NH1       41.5950   41.9550   -3.0380 N.pl3 203  ARG203      0.1354
    192  NH2       40.5240   43.9880   -3.0140 N.pl3 203  ARG203      0.1354
    193  N         41.9930   34.2510  -12.0090 N.3   226  ASP226     -0.1239
    194  CA        41.4860   35.5360  -11.5250 C.3   226  ASP226      0.1674
    195  C         41.2370   36.5310  -12.6590 C.2   226  ASP226      0.2266
    196  O         41.6100   37.6990  -12.5700 O.2   226  ASP226     -0.2867
    197  CB        42.5120   36.1050  -10.5320 C.3   226  ASP226      0.1410
    198  CG        42.0080   37.3140   -9.7800 C.2   226  ASP226      0.3668
    199  OD1       40.7920   37.4570   -9.5870 O.co2 226  ASP226     -0.2456
    200  OD2       42.8440   38.1240   -9.3530 O.co2 226  ASP226     -0.2456
    201  N         42.8870   40.8470   -9.3240 N.3   231  HIS231     -0.1241
    202  CA        43.1400   41.1170   -7.9020 C.3   231  HIS231      0.1621
    203  C         44.6300   40.9580   -7.5550 C.2   231  HIS231      0.2264
    204  O         45.0300   41.1510   -6.4050 O.2   231  HIS231     -0.2867
    205  CB        42.3190   40.2020   -6.9880 C.3   231  HIS231      0.0745
    206  CG        40.8430   40.3790   -7.1230 C.ar  231  HIS231      0.0817
    207  ND1       40.0980   39.7140   -8.0710 N.ar  231  HIS231     -0.2268
    208  CD2       39.9680   41.1400   -6.4270 C.ar  231  HIS231      0.1154
    209  CE1       38.8290   40.0560   -7.9560 C.ar  231  HIS231      0.1986
    210  NE2       38.7220   40.9190   -6.9640 N.ar  231  HIS231     -0.2212
@<TRIPOS>BOND
     1   129   130    1
     2   131   130    1
     3   131   132    2
     4   130   133    1
     5   133   134    1
     6   134   136   ar
     7   134   135   ar
     8   136   138   ar
     9   135   137   ar
    10   195   196    2
    11   195   194    1
    12   193   194    1
    13   138   139   ar
    14   137   139   ar
    15   194   197    1
    16   122   121    2
    17    53    51   ar
    18    53    54   ar
    19   139   140    1
    20   141   142    1
    21    51    50   ar
    22   197   198    1
    23    56    54   ar
    24    56    58   ar
    25    54    52   ar
    26   121   120    1
    27   198   199   ar
    28   198   200   ar
    29   125   127   ar
    30   125   124   ar
    31    48    47    2
    32   120   123    1
    33   120   119    1
    34   201   202    1
    35   127   128   ar
    36   142   145    1
    37   142   143    1
    38   146   145    1
    39   146   147    1
    40    58    57   ar
    41    50    52   ar
    42    50    49    1
    43    52    55   ar
    44   123   124    1
    45    47    46    1
    46   124   126   ar
    47   143   144    2
    48   149   147   ar
    49    49    46    1
    50   128   126   ar
    51   147   148   ar
    52   207   209   ar
    53   207   206   ar
    54    57    55   ar
    55   209   210   ar
    56   202   203    1
    57   202   205    1
    58    46    45    1
    59   203   204    2
    60   206   205    1
    61   206   208   ar
    62    41    43   ar
    63    41    39   ar
    64    43    44   ar
    65   210   208   ar
    66    45    36   am
    67   113   112    2
    68    38    39    1
    69    38    35    1
    70    39    40   ar
    71    44    42   ar
    72    36    35    1
    73    36    37    2
    74   103   102    2
    75    35    34    1
    76   109   108   ar
    77   109   107   ar
    78    40    42   ar
    79   112   111    1
    80   117   116   ar
    81   108   106   ar
    82    12    11    1
    83   107   105   ar
    84   111   114    1
    85   111   110    1
    86   102   110   am
    87   102   101    1
    88    28    26   am
    89   106   105   ar
    90    34    31   am
    91    32    31    2
    92   116   118   ar
    93   116   115    1
    94   105   104    1
    95   114   115    1
    96    11     9   ar
    97    11    10   ar
    98   188   189    1
    99   188   187    1
   100    31    30    1
   101    26    27    2
   102    26    25    1
   103     9     7   ar
   104   101   104    1
   105   101   100    1
   106   189   190    2
   107   191   190    1
   108   190   192    1
   109    10     8   ar
   110    25    22    1
   111   187   186    1
   112     7     6   ar
   113    30    29    1
   114    30    33    1
   115    29    23   am
   116     8     6   ar
   117   186   183    1
   118     6     5    1
   119    22    23    1
   120    22    21    1
   121    23    24    2
   122    96    95    2
   123    16    15    2
   124   155   157    1
   125   155   154    1
   126   181   179    1
   127    21    15   am
   128   156   154    1
   129    88    87    2
   130    15    14    1
   131   183   184    1
   132   183   182    1
   133     5     2    1
   134   179   180    1
   135   179   178    1
   136    95    94    1
   137   154   151    1
   138   177   176    2
   139   184   185    2
   140    13    14    1
   141    13     3   am
   142   182   176   am
   143    98    97    1
   144     2     3    1
   145     2     1    1
   146    94    93    1
   147    94    97    1
   148    14    17    1
   149   176   175    1
   150    87    93   am
   151    87    86    1
   152     3     4    2
   153    17    18    1
   154   178   175    1
   155    84    82    1
   156    97    99    1
   157    75    76   ar
   158    75    73   ar
   159   151   150    1
   160   151   152    1
   161    76    74   ar
   162   175   174    1
   163    86    89    1
   164    86    85    1
   165    89    90    1
   166    20    18   am
   167    18    19    2
   168   153   152    2
   169   152   158   am
   170    81    82    1
   171    81    78    1
   172    82    83    1
   173    73    71   ar
   174    90    91   ar
   175    90    92   ar
   176    74    72   ar
   177   158   159    1
   178   173   172    1
   179    65    63    1
   180   170   172   ar
   181   170   168   ar
   182   159   160    1
   183   172   171   ar
   184    71    72   ar
   185    71    70    1
   186    80    79    2
   187    78    79    1
   188    78    77    1
   189   168   167   ar
   190    64    63    1
   191    63    60    1
   192   171   169   ar
   193    70    67    1
   194   167   169   ar
   195   167   166    1
   196   160   161    2
   197   166   163    1
   198    60    61    1
   199    60    59    1
   200    61    62    2
   201    61    66   am
   202    66    67    1
   203    67    68    1
   204   163   162    1
   205   163   164    1
   206    68    69    2
   207   164   165    2
