@<TRIPOS>MOLECULE
tmp/1qf1A00.pdb
 191 188 0 0 0
SMALL
GASTEIGER

@<TRIPOS>ATOM
      1  N         29.4870   32.6280    2.4000 N.3   110  TYR110     -0.1227
      2  CA        30.0380   33.2200    1.1980 C.3   110  TYR110      0.1736
      3  C         31.1490   34.2160    1.5200 C.2   110  TYR110      0.2595
      4  O         30.9130   35.2620    2.1370 O.2   110  TYR110     -0.2718
      5  CB        28.9110   33.8630    0.3990 C.3   110  TYR110      0.0548
      6  CG        29.3380   34.3220   -0.9490 C.ar  110  TYR110     -0.0200
      7  CD1       29.7570   33.4080   -1.9100 C.ar  110  TYR110     -0.0009
      8  CD2       29.3650   35.6770   -1.2610 C.ar  110  TYR110     -0.0009
      9  CE1       30.2010   33.8340   -3.1560 C.ar  110  TYR110      0.0417
     10  CE2       29.8040   36.1140   -2.4980 C.ar  110  TYR110      0.0417
     11  CZ        30.2230   35.1920   -3.4410 C.ar  110  TYR110      0.1957
     12  OH        30.6720   35.6390   -4.6610 O.3   110  TYR110     -0.2866
     13  N         32.3630   33.8880    1.0850 N.am  111  ASN111     -0.1960
     14  CA        33.5330   34.7220    1.3510 C.3   111  ASN111      0.1819
     15  C         33.8090   35.7650    0.2820 C.2   111  ASN111      0.2621
     16  O         34.8960   35.7980   -0.3040 O.2   111  ASN111     -0.2715
     17  CB        34.7890   33.8560    1.5540 C.3   111  ASN111      0.1195
     18  CG        34.7660   33.0870    2.8550 C.2   111  ASN111      0.2630
     19  OD1       34.4320   33.6230    3.9150 O.2   111  ASN111     -0.2716
     20  ND2       35.1260   31.8210    2.7850 N.am  111  ASN111     -0.0877
     21  N         32.8360   36.6220    0.0150 N.am  112  ASN112     -0.1958
     22  CA        33.0480   37.6590   -0.9750 C.3   112  ASN112      0.1819
     23  C         31.8800   38.6330   -0.9660 C.2   112  ASN112      0.2621
     24  O         30.8640   38.4060   -0.2930 O.2   112  ASN112     -0.2715
     25  CB        33.1700   37.0520   -2.3730 C.3   112  ASN112      0.1195
     26  CG        34.2760   37.6960   -3.2120 C.2   112  ASN112      0.2630
     27  OD1       34.6290   38.8500   -2.9800 O.2   112  ASN112     -0.2716
     28  ND2       34.8500   37.0110   -4.1830 N.am  112  ASN112     -0.0877
     29  N         32.1120   39.6710   -1.7150 N.am  113  ALA113     -0.1963
     30  CA        31.1660   40.7520   -1.9540 C.3   113  ALA113      0.1728
     31  C         31.4220   41.2170   -3.3700 C.2   113  ALA113      0.2616
     32  O         32.5340   41.0760   -3.8980 O.2   113  ALA113     -0.2715
     33  CB        31.4070   41.8850   -0.9530 C.3   113  ALA113      0.0334
     34  N         30.4170   41.7520   -4.0050 N.am  114  PHE114     -0.1960
     35  CA        30.6060   42.1980   -5.3760 C.3   114  PHE114      0.1771
     36  C         29.5030   43.1500   -5.8420 C.2   114  PHE114      0.2619
     37  O         28.4400   43.2570   -5.2180 O.2   114  PHE114     -0.2715
     38  CB        30.6460   40.9910   -6.3260 C.3   114  PHE114      0.0574
     39  CG        29.4230   40.0690   -6.2210 C.ar  114  PHE114     -0.0200
     40  CD1       29.3820   39.0580   -5.2500 C.ar  114  PHE114     -0.0042
     41  CD2       28.3470   40.2300   -7.1030 C.ar  114  PHE114     -0.0042
     42  CE1       28.2670   38.2120   -5.1640 C.ar  114  PHE114     -0.0003
     43  CE2       27.2340   39.3850   -7.0170 C.ar  114  PHE114     -0.0003
     44  CZ        27.1930   38.3750   -6.0480 C.ar  114  PHE114     -0.0000
     45  N         29.8320   43.8410   -6.9200 N.am  115  TRP115     -0.1974
     46  CA        28.8940   44.7030   -7.6490 C.3   115  TRP115      0.1640
     47  C         28.4910   43.8760   -8.8470 C.2   115  TRP115      0.2290
     48  O         29.3450   43.3680   -9.5820 O.2   115  TRP115     -0.2864
     49  CB        29.5790   46.0070   -8.0880 C.3   115  TRP115      0.0576
     50  CG        28.7890   46.7630   -9.1700 C.ar  115  TRP115      0.0006
     51  CD1       29.0380   46.7910  -10.4890 C.ar  115  TRP115      0.0946
     52  CD2       27.6420   47.5690   -8.9320 C.ar  115  TRP115      0.0152
     53  NE1       28.0320   47.6140  -11.0930 N.ar  115  TRP115     -0.2442
     54  CE2       27.2210   48.0560  -10.1630 C.ar  115  TRP115      0.0810
     55  CE3       26.9270   47.9180   -7.7810 C.ar  115  TRP115      0.0012
     56  CZ2       26.0990   48.8800  -10.3190 C.ar  115  TRP115      0.0191
     57  CZ3       25.8010   48.7530   -7.9460 C.ar  115  TRP115      0.0001
     58  CH2       25.4070   49.2090   -9.1560 C.ar  115  TRP115      0.0015
     59  N         36.5980   35.2930    6.6080 N.3   130  PHE130     -0.1241
     60  CA        35.9220   36.5890    6.6570 C.3   130  PHE130      0.1605
     61  C         34.7210   36.5360    7.5990 C.2   130  PHE130      0.2264
     62  O         34.1300   35.4720    7.8170 O.2   130  PHE130     -0.2867
     63  CB        35.2920   36.9340    5.2910 C.3   130  PHE130      0.0534
     64  CG        36.2480   37.4800    4.2370 C.ar  130  PHE130     -0.0203
     65  CD1       36.8270   38.7420    4.4000 C.ar  130  PHE130     -0.0042
     66  CD2       36.5250   36.7200    3.0960 C.ar  130  PHE130     -0.0042
     67  CE1       37.6820   39.2480    3.4150 C.ar  130  PHE130     -0.0003
     68  CE2       37.3770   37.2270    2.1090 C.ar  130  PHE130     -0.0003
     69  CZ        37.9550   38.4920    2.2680 C.ar  130  PHE130     -0.0000
     70  N         31.1170   40.7830    5.2350 N.3   133  LEU133     -0.1245
     71  CA        31.9010   41.7550    4.4670 C.3   133  LEU133      0.1561
     72  C         31.5100   43.2280    4.4820 C.2   133  LEU133      0.2260
     73  O         32.3630   44.0910    4.2700 O.2   133  LEU133     -0.2867
     74  CB        32.1550   41.2560    3.0350 C.3   133  LEU133      0.0270
     75  CG        33.1900   40.1180    2.9750 C.3   133  LEU133      0.0019
     76  CD1       32.4930   38.7640    3.1390 C.3   133  LEU133      0.0001
     77  CD2       34.0100   40.1750    1.6790 C.3   133  LEU133      0.0001
     78  N         36.0640   49.9210    3.5570 N.3   138  ASP138     -0.1225
     79  CA        36.8130   49.8640    2.3080 C.3   138  ASP138      0.1805
     80  C         36.1940   48.8370    1.3620 C.2   138  ASP138      0.2597
     81  O         36.2820   48.9840    0.1500 O.2   138  ASP138     -0.2718
     82  CB        38.3350   49.6760    2.5010 C.3   138  ASP138      0.1424
     83  CG        38.7120   48.4520    3.3230 C.2   138  ASP138      0.3668
     84  OD1       37.8660   47.5890    3.6280 O.co2 138  ASP138     -0.2456
     85  OD2       39.9070   48.3470    3.6670 O.co2 138  ASP138     -0.2456
     86  N         35.5100   47.8390    1.9180 N.am  139  VAL139     -0.1980
     87  CA        34.8230   46.8300    1.1080 C.3   139  VAL139      0.1595
     88  C         33.6100   47.4900    0.4460 C.2   139  VAL139      0.2287
     89  O         33.4580   47.4220   -0.7700 O.2   139  VAL139     -0.2864
     90  CB        34.2960   45.6380    1.9490 C.3   139  VAL139      0.0276
     91  CG1       33.5740   44.6300    1.0450 C.3   139  VAL139      0.0022
     92  CG2       35.4300   44.9730    2.6880 C.3   139  VAL139      0.0022
     93  N         34.6660   50.0100   -2.0900 N.3   142  HIS142     -0.1226
     94  CA        35.2570   49.2880   -3.2230 C.3   142  HIS142      0.1752
     95  C         34.1180   48.8400   -4.1730 C.2   142  HIS142      0.2595
     96  O         34.1970   49.0350   -5.3850 O.2   142  HIS142     -0.2718
     97  CB        36.0400   48.0640   -2.6960 C.3   142  HIS142      0.0759
     98  CG        36.4980   47.1050   -3.7590 C.ar  142  HIS142      0.0818
     99  ND1       37.8200   46.8690   -4.0690 N.ar  142  HIS142     -0.2268
    100  CD2       35.7820   46.2830   -4.5710 C.ar  142  HIS142      0.1154
    101  CE1       37.8700   45.9410   -5.0340 C.ar  142  HIS142      0.1986
    102  NE2       36.6550   45.5450   -5.3860 N.ar  142  HIS142     -0.2212
    103  N         33.0690   48.2340   -3.6190 N.am  143  GLU143     -0.1979
    104  CA        31.9500   47.7630   -4.4420 C.3   143  GLU143      0.1602
    105  C         31.1970   48.8810   -5.1570 C.2   143  GLU143      0.2287
    106  O         30.9190   48.7840   -6.3580 O.2   143  GLU143     -0.2864
    107  CB        30.9610   46.9170   -3.6260 C.3   143  GLU143      0.0415
    108  CG        31.5560   45.6960   -2.9070 C.3   143  GLU143      0.1163
    109  CD        32.4550   44.8130   -3.7820 C.2   143  GLU143      0.3649
    110  OE1       32.3630   44.8290   -5.0290 O.co2 143  GLU143     -0.2457
    111  OE2       33.2760   44.0850   -3.2010 O.co2 143  GLU143     -0.2457
    112  N         32.7590   50.3630   -8.1910 N.3   146  HIS146     -0.1241
    113  CA        32.6320   49.5320   -9.3990 C.3   146  HIS146      0.1621
    114  C         31.4470   50.0280  -10.2300 C.2   146  HIS146      0.2264
    115  O         31.4510   49.9460  -11.4660 O.2   146  HIS146     -0.2867
    116  CB        32.4260   48.0660   -9.0280 C.3   146  HIS146      0.0745
    117  CG        33.7460   47.3240   -8.8250 C.ar  146  HIS146      0.0817
    118  ND1       34.7660   47.3580   -9.7730 N.ar  146  HIS146     -0.2268
    119  CD2       34.1990   46.5520   -7.8060 C.ar  146  HIS146      0.1154
    120  CE1       35.7740   46.6350   -9.3170 C.ar  146  HIS146      0.1986
    121  NE2       35.4520   46.1480   -8.1450 N.ar  146  HIS146     -0.2212
    122  N         36.3510   43.7500  -17.3960 N.3   157  TYR157     -0.1241
    123  CA        36.8560   42.9980  -16.2650 C.3   157  TYR157      0.1605
    124  C         37.7630   41.8210  -16.5700 C.2   157  TYR157      0.2264
    125  O         37.4420   40.6820  -16.2540 O.2   157  TYR157     -0.2867
    126  CB        35.7110   42.5420  -15.3760 C.3   157  TYR157      0.0534
    127  CG        36.1310   42.3760  -13.9330 C.ar  157  TYR157     -0.0201
    128  CD1       36.4310   43.4900  -13.1470 C.ar  157  TYR157     -0.0009
    129  CD2       36.1660   41.1180  -13.3310 C.ar  157  TYR157     -0.0009
    130  CE1       36.7440   43.3560  -11.8000 C.ar  157  TYR157      0.0417
    131  CE2       36.4730   40.9740  -11.9850 C.ar  157  TYR157      0.0417
    132  CZ        36.7590   42.0980  -11.2260 C.ar  157  TYR157      0.1957
    133  OH        37.0350   41.9660   -9.8880 O.3   157  TYR157     -0.2866
    134  N         39.8440   47.0160  -10.7440 N.3   166  GLU166     -0.1245
    135  CA        40.0170   46.5900   -9.3530 C.3   166  GLU166      0.1567
    136  C         40.7910   47.6080   -8.5140 C.2   166  GLU166      0.2260
    137  O         40.3700   47.9550   -7.4180 O.2   166  GLU166     -0.2867
    138  CB        40.7180   45.2240   -9.2920 C.3   166  GLU166      0.0388
    139  CG        39.7680   44.0400   -9.3000 C.3   166  GLU166      0.1160
    140  CD        38.8270   44.0820   -8.1180 C.2   166  GLU166      0.3649
    141  OE1       39.3100   44.0960   -6.9720 O.co2 166  GLU166     -0.2457
    142  OE2       37.5920   44.1350   -8.3100 O.co2 166  GLU166     -0.2457
    143  N         43.7670   46.8040    2.6670 N.3   188  ILE188     -0.1231
    144  CA        42.4450   46.4750    2.1320 C.3   188  ILE188      0.1692
    145  C         41.7790   45.2800    2.8260 C.2   188  ILE188      0.2592
    146  O         42.3290   44.1740    2.8260 O.2   188  ILE188     -0.2718
    147  CB        42.5160   46.1690    0.6150 C.3   188  ILE188      0.0266
    148  CG1       43.1350   47.3500   -0.1360 C.3   188  ILE188      0.0019
    149  CG2       41.1150   45.8600    0.0690 C.3   188  ILE188      0.0020
    150  CD1       42.3100   48.6300   -0.0570 C.3   188  ILE188      0.0001
    151  N         40.6000   45.5170    3.4080 N.am  189  GLY189     -0.1957
    152  CA        39.8400   44.4690    4.0650 C.3   189  GLY189      0.1869
    153  C         40.2280   44.0680    5.4720 C.2   189  GLY189      0.2309
    154  O         39.6720   43.1110    6.0010 O.2   189  GLY189     -0.2863
    155  N         43.6040   41.6340    3.3640 N.3   202  LEU202     -0.1231
    156  CA        43.5130   40.8720    2.1230 C.3   202  LEU202      0.1693
    157  C         44.5740   41.3430    1.1300 C.2   202  LEU202      0.2591
    158  O         45.2300   40.5340    0.4670 O.2   202  LEU202     -0.2718
    159  CB        42.1030   41.0020    1.5310 C.3   202  LEU202      0.0284
    160  CG        41.8100   40.1950    0.2680 C.3   202  LEU202      0.0019
    161  CD1       42.0020   38.7280    0.5500 C.3   202  LEU202      0.0001
    162  CD2       40.4020   40.4730   -0.2130 C.3   202  LEU202      0.0001
    163  N         44.7050   42.6580    1.0140 N.am  203  ARG203     -0.1980
    164  CA        45.6840   43.2690    0.1260 C.3   203  ARG203      0.1597
    165  C         46.2870   44.4490    0.8550 C.2   203  ARG203      0.2287
    166  O         45.7540   44.8970    1.8710 O.2   203  ARG203     -0.2864
    167  CB        45.0330   43.7730   -1.1690 C.3   203  ARG203      0.0334
    168  CG        44.5450   42.6790   -2.0970 C.3   203  ARG203      0.0492
    169  CD        44.0130   43.2490   -3.4010 C.3   203  ARG203      0.2205
    170  NE        42.7310   43.9330   -3.2400 N.pl3 203  ARG203     -0.0865
    171  CZ        41.5470   43.3200   -3.1730 C.cat 203  ARG203      0.5346
    172  NH1       41.4650   41.9930   -3.2360 N.pl3 203  ARG203      0.1354
    173  NH2       40.4290   44.0400   -3.1260 N.pl3 203  ARG203      0.1354
    174  N         41.8950   34.2450  -12.1250 N.3   226  ASP226     -0.1239
    175  CA        41.3840   35.5200  -11.6290 C.3   226  ASP226      0.1674
    176  C         41.1290   36.5190  -12.7610 C.2   226  ASP226      0.2266
    177  O         41.5070   37.6830  -12.6760 O.2   226  ASP226     -0.2867
    178  CB        42.4190   36.0650  -10.6320 C.3   226  ASP226      0.1410
    179  CG        41.9340   37.2710   -9.8610 C.2   226  ASP226      0.3668
    180  OD1       40.7260   37.4040   -9.5970 O.co2 226  ASP226     -0.2456
    181  OD2       42.7860   38.0880   -9.4880 O.co2 226  ASP226     -0.2456
    182  N         42.7860   40.8070   -9.3780 N.3   231  HIS231     -0.1241
    183  CA        43.0390   41.0910   -7.9580 C.3   231  HIS231      0.1621
    184  C         44.5370   40.9390   -7.6150 C.2   231  HIS231      0.2264
    185  O         44.9450   41.1800   -6.4780 O.2   231  HIS231     -0.2867
    186  CB        42.2280   40.1720   -7.0320 C.3   231  HIS231      0.0745
    187  CG        40.7500   40.3400   -7.1590 C.ar  231  HIS231      0.0817
    188  ND1       39.9900   39.5960   -8.0340 N.ar  231  HIS231     -0.2268
    189  CD2       39.8880   41.1690   -6.5250 C.ar  231  HIS231      0.1154
    190  CE1       38.7250   39.9570   -7.9360 C.ar  231  HIS231      0.1986
    191  NE2       38.6360   40.9090   -7.0270 N.ar  231  HIS231     -0.2212
@<TRIPOS>BOND
     1   122   123    1
     2   124   123    1
     3   124   125    2
     4   123   126    1
     5   126   127    1
     6   127   129   ar
     7   127   128   ar
     8   129   131   ar
     9   128   130   ar
    10   176   177    2
    11   176   175    1
    12   174   175    1
    13   131   132   ar
    14   130   132   ar
    15   175   178    1
    16   115   114    2
    17   132   133    1
    18    53    51   ar
    19    53    54   ar
    20   134   135    1
    21   178   179    1
    22    51    50   ar
    23    56    54   ar
    24    56    58   ar
    25   114   113    1
    26    54    52   ar
    27   179   180   ar
    28   179   181   ar
    29   118   120   ar
    30   118   117   ar
    31    48    47    2
    32   113   116    1
    33   113   112    1
    34   182   183    1
    35   135   138    1
    36   135   136    1
    37   120   121   ar
    38   139   138    1
    39   139   140    1
    40    50    52   ar
    41    50    49    1
    42    58    57   ar
    43   116   117    1
    44    52    55   ar
    45    47    46    1
    46   117   119   ar
    47   136   137    2
    48   142   140   ar
    49   121   119   ar
    50   140   141   ar
    51    49    46    1
    52   188   190   ar
    53   188   187   ar
    54   183   184    1
    55   183   186    1
    56    57    55   ar
    57   190   191   ar
    58    46    45    1
    59   184   185    2
    60   187   186    1
    61   187   189   ar
    62    41    43   ar
    63    41    39   ar
    64   191   189   ar
    65    43    44   ar
    66    45    36   am
    67   106   105    2
    68    38    39    1
    69    38    35    1
    70    39    40   ar
    71    44    42   ar
    72    36    35    1
    73    36    37    2
    74   102   101   ar
    75   102   100   ar
    76    96    95    2
    77    35    34    1
    78    40    42   ar
    79   105   104    1
    80   101    99   ar
    81   110   109   ar
    82    12    11    1
    83   100    98   ar
    84   104   107    1
    85   104   103    1
    86    28    26   am
    87    95   103   am
    88    95    94    1
    89    99    98   ar
    90    34    31   am
    91    32    31    2
    92   109   111   ar
    93   109   108    1
    94    98    97    1
    95   107   108    1
    96    11     9   ar
    97    11    10   ar
    98   169   170    1
    99   169   168    1
   100    31    30    1
   101   170   171    2
   102   172   171    1
   103    94    97    1
   104    94    93    1
   105    26    27    2
   106    26    25    1
   107   171   173    1
   108     9     7   ar
   109    10     8   ar
   110    25    22    1
   111   168   167    1
   112    30    29    1
   113    30    33    1
   114     7     6   ar
   115    29    23   am
   116     8     6   ar
   117   167   164    1
   118    22    23    1
   119    22    21    1
   120    23    24    2
   121     6     5    1
   122    89    88    2
   123    16    15    2
   124   162   160    1
   125   148   150    1
   126   148   147    1
   127    21    15   am
   128   149   147    1
   129   164   165    1
   130   164   163    1
   131    81    80    2
   132   160   161    1
   133   160   159    1
   134    15    14    1
   135     5     2    1
   136    88    87    1
   137   158   157    2
   138   147   144    1
   139   165   166    2
   140   163   157   am
   141    91    90    1
   142    13    14    1
   143    13     3   am
   144    87    86    1
   145    87    90    1
   146   157   156    1
   147     2     3    1
   148     2     1    1
   149    14    17    1
   150    80    86   am
   151    80    79    1
   152     3     4    2
   153   159   156    1
   154    17    18    1
   155    77    75    1
   156    90    92    1
   157    68    69   ar
   158    68    66   ar
   159   156   155    1
   160   144   143    1
   161   144   145    1
   162    69    67   ar
   163    79    82    1
   164    79    78    1
   165    82    83    1
   166    20    18   am
   167   146   145    2
   168   145   151   am
   169    18    19    2
   170    75    74    1
   171    75    76    1
   172    74    71    1
   173    66    64   ar
   174    83    84   ar
   175    83    85   ar
   176   151   152    1
   177    67    65   ar
   178   152   153    1
   179    64    65   ar
   180    64    63    1
   181    73    72    2
   182    71    72    1
   183    71    70    1
   184    63    60    1
   185   153   154    2
   186    59    60    1
   187    60    61    1
   188    61    62    2
