@<TRIPOS>MOLECULE
tmp/1qf2A00.pdb
 176 170 0 0 0
SMALL
GASTEIGER

@<TRIPOS>ATOM
      1  N         32.4170   33.8910    1.2330 N.3   111  ASN111     -0.1225
      2  CA        33.5810   34.7410    1.4930 C.3   111  ASN111      0.1785
      3  C         33.8930   35.7650    0.4140 C.2   111  ASN111      0.2597
      4  O         34.9980   35.7770   -0.1360 O.2   111  ASN111     -0.2718
      5  CB        34.8340   33.8820    1.7170 C.3   111  ASN111      0.1169
      6  CG        34.7890   33.0980    3.0080 C.2   111  ASN111      0.2627
      7  OD1       34.4670   33.6290    4.0700 O.2   111  ASN111     -0.2716
      8  ND2       35.1440   31.8260    2.9280 N.am  111  ASN111     -0.0877
      9  N         32.9350   36.6310    0.1040 N.am  112  ASN112     -0.1960
     10  CA        33.1620   37.6520   -0.9070 C.3   112  ASN112      0.1819
     11  C         32.0040   38.6480   -0.9220 C.2   112  ASN112      0.2621
     12  O         31.0120   38.5010   -0.1870 O.2   112  ASN112     -0.2715
     13  CB        33.3200   37.0070   -2.2940 C.3   112  ASN112      0.1195
     14  CG        34.3900   37.6860   -3.1500 C.2   112  ASN112      0.2630
     15  OD1       34.6880   38.8620   -2.9810 O.2   112  ASN112     -0.2716
     16  ND2       34.9780   36.9320   -4.0600 N.am  112  ASN112     -0.0877
     17  N         32.1700   39.6860   -1.7280 N.am  113  ALA113     -0.1963
     18  CA        31.1670   40.7220   -1.9090 C.3   113  ALA113      0.1728
     19  C         31.3620   41.1100   -3.3600 C.2   113  ALA113      0.2616
     20  O         32.4470   40.9100   -3.9070 O.2   113  ALA113     -0.2715
     21  CB        31.4420   41.9020   -1.0020 C.3   113  ALA113      0.0334
     22  N         30.3290   41.6380   -4.0000 N.am  114  PHE114     -0.1974
     23  CA        30.4520   42.0130   -5.3950 C.3   114  PHE114      0.1639
     24  C         29.3270   42.9290   -5.8670 C.2   114  PHE114      0.2290
     25  O         28.2750   43.0360   -5.2300 O.2   114  PHE114     -0.2864
     26  CB        30.4810   40.7540   -6.2810 C.3   114  PHE114      0.0560
     27  CG        29.2690   39.8260   -6.1410 C.ar  114  PHE114     -0.0200
     28  CD1       29.2470   38.8450   -5.1420 C.ar  114  PHE114     -0.0042
     29  CD2       28.1890   39.9440   -7.0240 C.ar  114  PHE114     -0.0042
     30  CE1       28.1500   37.9800   -5.0310 C.ar  114  PHE114     -0.0003
     31  CE2       27.0940   39.0770   -6.9160 C.ar  114  PHE114     -0.0003
     32  CZ        27.0750   38.0940   -5.9200 C.ar  114  PHE114     -0.0000
     33  N         37.7900   32.9520    7.4540 N.3   129  THR129     -0.1203
     34  CA        38.4620   33.7760    6.4690 C.3   129  THR129      0.1994
     35  C         37.9110   35.2000    6.5240 C.2   129  THR129      0.2617
     36  O         38.6640   36.1640    6.4320 O.2   129  THR129     -0.2717
     37  CB        38.2420   33.2070    5.0480 C.3   129  THR129      0.1784
     38  OG1       38.5410   31.8060    5.0470 O.3   129  THR129     -0.2211
     39  CG2       39.1410   33.9060    4.0270 C.3   129  THR129      0.0376
     40  N         36.5980   35.3200    6.7050 N.am  130  PHE130     -0.1975
     41  CA        35.9320   36.6160    6.7410 C.3   130  PHE130      0.1639
     42  C         34.7370   36.5660    7.6900 C.2   130  PHE130      0.2290
     43  O         34.1470   35.5020    7.9140 O.2   130  PHE130     -0.2864
     44  CB        35.3010   36.9380    5.3760 C.3   130  PHE130      0.0560
     45  CG        36.2430   37.4800    4.3070 C.ar  130  PHE130     -0.0200
     46  CD1       36.7990   38.7550    4.4400 C.ar  130  PHE130     -0.0042
     47  CD2       36.5270   36.7010    3.1800 C.ar  130  PHE130     -0.0042
     48  CE1       37.6330   39.2590    3.4360 C.ar  130  PHE130     -0.0003
     49  CE2       37.3570   37.2080    2.1730 C.ar  130  PHE130     -0.0003
     50  CZ        37.9090   38.4880    2.3010 C.ar  130  PHE130     -0.0000
     51  N         31.1320   40.7760    5.2740 N.3   133  LEU133     -0.1245
     52  CA        31.9030   41.7350    4.5010 C.3   133  LEU133      0.1561
     53  C         31.5430   43.2140    4.5410 C.2   133  LEU133      0.2260
     54  O         32.4260   44.0640    4.3870 O.2   133  LEU133     -0.2867
     55  CB        32.1100   41.2330    3.0670 C.3   133  LEU133      0.0270
     56  CG        33.1250   40.0770    3.0470 C.3   133  LEU133      0.0019
     57  CD1       32.4340   38.7280    3.2290 C.3   133  LEU133      0.0001
     58  CD2       33.9310   40.1170    1.7760 C.3   133  LEU133      0.0001
     59  N         35.6450   47.9540    1.9270 N.3   139  VAL139     -0.1245
     60  CA        34.9920   46.9210    1.1060 C.3   139  VAL139      0.1561
     61  C         33.7440   47.5240    0.4370 C.2   139  VAL139      0.2260
     62  O         33.5630   47.4090   -0.7770 O.2   139  VAL139     -0.2867
     63  CB        34.5450   45.7150    1.9720 C.3   139  VAL139      0.0252
     64  CG1       33.8380   44.6620    1.1130 C.3   139  VAL139      0.0019
     65  CG2       35.7450   45.1090    2.6970 C.3   139  VAL139      0.0019
     66  N         34.7210   50.0610   -2.0990 N.3   142  HIS142     -0.1226
     67  CA        35.3530   49.3640   -3.2180 C.3   142  HIS142      0.1752
     68  C         34.2520   48.8720   -4.1710 C.2   142  HIS142      0.2595
     69  O         34.3350   49.0790   -5.3810 O.2   142  HIS142     -0.2718
     70  CB        36.1870   48.1860   -2.6730 C.3   142  HIS142      0.0759
     71  CG        36.7590   47.2850   -3.7250 C.ar  142  HIS142      0.0818
     72  ND1       38.1030   47.1670   -3.9940 N.ar  142  HIS142     -0.2268
     73  CD2       36.1400   46.4160   -4.5680 C.ar  142  HIS142      0.1154
     74  CE1       38.2580   46.2600   -4.9650 C.ar  142  HIS142      0.1986
     75  NE2       37.0920   45.7680   -5.3550 N.ar  142  HIS142     -0.2212
     76  N         33.2200   48.2370   -3.6180 N.am  143  GLU143     -0.1979
     77  CA        32.1130   47.7120   -4.4180 C.3   143  GLU143      0.1602
     78  C         31.3320   48.7950   -5.1380 C.2   143  GLU143      0.2287
     79  O         31.0540   48.6750   -6.3250 O.2   143  GLU143     -0.2864
     80  CB        31.1420   46.8900   -3.5640 C.3   143  GLU143      0.0415
     81  CG        31.7510   45.6910   -2.8260 C.3   143  GLU143      0.1163
     82  CD        32.5080   44.6990   -3.7210 C.2   143  GLU143      0.3649
     83  OE1       32.4530   44.7550   -4.9680 O.co2 143  GLU143     -0.2457
     84  OE2       33.1790   43.8280   -3.1470 O.co2 143  GLU143     -0.2457
     85  N         32.9150   50.1750   -8.1150 N.3   146  HIS146     -0.1241
     86  CA        32.7960   49.3000   -9.2900 C.3   146  HIS146      0.1621
     87  C         31.6290   49.8020  -10.1480 C.2   146  HIS146      0.2264
     88  O         31.6620   49.7330  -11.3830 O.2   146  HIS146     -0.2867
     89  CB        32.5470   47.8550   -8.8630 C.3   146  HIS146      0.0745
     90  CG        33.8310   47.0260   -8.7550 C.ar  146  HIS146      0.0817
     91  ND1       34.8980   47.1890   -9.6370 N.ar  146  HIS146     -0.2268
     92  CD2       34.2040   46.0520   -7.8850 C.ar  146  HIS146      0.1154
     93  CE1       35.8490   46.3360   -9.2930 C.ar  146  HIS146      0.1986
     94  NE2       35.4500   45.6500   -8.2520 N.ar  146  HIS146     -0.2212
     95  N         36.4630   43.7640  -17.3860 N.3   157  TYR157     -0.1241
     96  CA        36.9690   42.9840  -16.2710 C.3   157  TYR157      0.1605
     97  C         37.9070   41.8240  -16.5850 C.2   157  TYR157      0.2264
     98  O         37.6600   40.6840  -16.1900 O.2   157  TYR157     -0.2867
     99  CB        35.8230   42.5140  -15.3800 C.3   157  TYR157      0.0534
    100  CG        36.2220   42.3780  -13.9240 C.ar  157  TYR157     -0.0201
    101  CD1       36.5430   43.5070  -13.1610 C.ar  157  TYR157     -0.0009
    102  CD2       36.2230   41.1340  -13.2880 C.ar  157  TYR157     -0.0009
    103  CE1       36.8450   43.4010  -11.8070 C.ar  157  TYR157      0.0417
    104  CE2       36.5200   41.0200  -11.9310 C.ar  157  TYR157      0.0417
    105  CZ        36.8250   42.1580  -11.1970 C.ar  157  TYR157      0.1957
    106  OH        37.0630   42.0620   -9.8430 O.3   157  TYR157     -0.2866
    107  N         40.0660   47.0880  -10.7920 N.3   166  GLU166     -0.1245
    108  CA        40.2690   46.6780   -9.4000 C.3   166  GLU166      0.1567
    109  C         41.0310   47.7070   -8.5750 C.2   166  GLU166      0.2260
    110  O         40.6500   48.0010   -7.4540 O.2   166  GLU166     -0.2867
    111  CB        41.0000   45.3290   -9.3360 C.3   166  GLU166      0.0388
    112  CG        40.0770   44.1400   -9.3050 C.3   166  GLU166      0.1160
    113  CD        39.1390   44.2010   -8.1290 C.2   166  GLU166      0.3649
    114  OE1       39.6040   44.2510   -6.9670 O.co2 166  GLU166     -0.2457
    115  OE2       37.9070   44.2080   -8.3330 O.co2 166  GLU166     -0.2457
    116  N         43.6630   46.7710    2.5150 N.3   188  ILE188     -0.1231
    117  CA        42.3100   46.4840    2.0460 C.3   188  ILE188      0.1692
    118  C         41.6450   45.3200    2.7860 C.2   188  ILE188      0.2592
    119  O         42.1990   44.2100    2.8380 O.2   188  ILE188     -0.2718
    120  CB        42.2960   46.1640    0.5340 C.3   188  ILE188      0.0266
    121  CG1       42.8930   47.3320   -0.2630 C.3   188  ILE188      0.0019
    122  CG2       40.8720   45.8300    0.0820 C.3   188  ILE188      0.0020
    123  CD1       42.0850   48.6260   -0.1790 C.3   188  ILE188      0.0001
    124  N         40.4740   45.5930    3.3670 N.am  189  GLY189     -0.1957
    125  CA        39.6940   44.5800    4.0560 C.3   189  GLY189      0.1869
    126  C         40.1420   44.1130    5.4230 C.2   189  GLY189      0.2309
    127  O         39.6150   43.1260    5.9270 O.2   189  GLY189     -0.2863
    128  N         38.6410   40.7280    7.5310 N.3   193  TYR193     -0.1241
    129  CA        39.4740   39.6110    7.1370 C.3   193  TYR193      0.1605
    130  C         40.0970   38.8870    8.3220 C.2   193  TYR193      0.2264
    131  O         40.6050   39.5240    9.2440 O.2   193  TYR193     -0.2867
    132  CB        40.5730   40.1330    6.2210 C.3   193  TYR193      0.0534
    133  CG        41.4060   39.0650    5.5780 C.ar  193  TYR193     -0.0201
    134  CD1       40.8400   38.1550    4.6930 C.ar  193  TYR193     -0.0009
    135  CD2       42.7760   38.9900    5.8180 C.ar  193  TYR193     -0.0009
    136  CE1       41.6180   37.1970    4.0530 C.ar  193  TYR193      0.0417
    137  CE2       43.5660   38.0350    5.1850 C.ar  193  TYR193      0.0417
    138  CZ        42.9830   37.1480    4.3030 C.ar  193  TYR193      0.1957
    139  OH        43.7650   36.2320    3.6410 O.3   193  TYR193     -0.2866
    140  N         43.6620   41.7140    3.1490 N.3   202  LEU202     -0.1231
    141  CA        43.5560   41.0370    1.8660 C.3   202  LEU202      0.1693
    142  C         44.6550   41.5000    0.9090 C.2   202  LEU202      0.2591
    143  O         45.2660   40.6930    0.2030 O.2   202  LEU202     -0.2718
    144  CB        42.1700   41.3130    1.2660 C.3   202  LEU202      0.0284
    145  CG        41.6150   40.3170    0.2600 C.3   202  LEU202      0.0019
    146  CD1       41.7470   38.9310    0.8570 C.3   202  LEU202      0.0001
    147  CD2       40.1540   40.6290   -0.0590 C.3   202  LEU202      0.0001
    148  N         44.8870   42.8050    0.8760 N.am  203  ARG203     -0.1980
    149  CA        45.8880   43.3950   -0.0040 C.3   203  ARG203      0.1597
    150  C         46.4700   44.5920    0.7090 C.2   203  ARG203      0.2287
    151  O         45.8630   45.1290    1.6340 O.2   203  ARG203     -0.2864
    152  CB        45.2460   43.8990   -1.3110 C.3   203  ARG203      0.0334
    153  CG        44.7100   42.8210   -2.2310 C.3   203  ARG203      0.0492
    154  CD        44.1470   43.4170   -3.5200 C.3   203  ARG203      0.2205
    155  NE        42.8430   44.0730   -3.3680 N.pl3 203  ARG203     -0.0865
    156  CZ        41.6720   43.4330   -3.3120 C.cat 203  ARG203      0.5346
    157  NH1       41.6240   42.1050   -3.3660 N.pl3 203  ARG203      0.1354
    158  NH2       40.5370   44.1250   -3.3260 N.pl3 203  ARG203      0.1354
    159  N         42.1040   34.2520  -12.2510 N.3   226  ASP226     -0.1239
    160  CA        41.5900   35.5360  -11.7720 C.3   226  ASP226      0.1674
    161  C         41.3570   36.5290  -12.9110 C.2   226  ASP226      0.2266
    162  O         41.6950   37.7050  -12.8040 O.2   226  ASP226     -0.2867
    163  CB        42.5930   36.1010  -10.7510 C.3   226  ASP226      0.1410
    164  CG        42.0810   37.3290  -10.0200 C.2   226  ASP226      0.3668
    165  OD1       40.8570   37.4920   -9.8680 O.co2 226  ASP226     -0.2456
    166  OD2       42.9220   38.1310   -9.5720 O.co2 226  ASP226     -0.2456
    167  N         42.9300   40.8780   -9.5780 N.3   231  HIS231     -0.1241
    168  CA        43.1760   41.1620   -8.1660 C.3   231  HIS231      0.1621
    169  C         44.6610   41.0120   -7.8120 C.2   231  HIS231      0.2264
    170  O         45.0540   41.2240   -6.6640 O.2   231  HIS231     -0.2867
    171  CB        42.3660   40.2370   -7.2610 C.3   231  HIS231      0.0745
    172  CG        40.8900   40.3780   -7.4320 C.ar  231  HIS231      0.0817
    173  ND1       40.1740   39.6150   -8.3240 N.ar  231  HIS231     -0.2268
    174  CD2       39.9940   41.1920   -6.8300 C.ar  231  HIS231      0.1154
    175  CE1       38.8980   39.9470   -8.2660 C.ar  231  HIS231      0.1986
    176  NE2       38.7620   40.9040   -7.3650 N.ar  231  HIS231     -0.2212
@<TRIPOS>BOND
     1    95    96    1
     2    97    96    1
     3    97    98    2
     4    96    99    1
     5    99   100    1
     6   100   102   ar
     7   100   101   ar
     8   102   104   ar
     9   101   103   ar
    10   161   162    2
    11   161   160    1
    12   159   160    1
    13   104   105   ar
    14   103   105   ar
    15   160   163    1
    16    88    87    2
    17   105   106    1
    18   107   108    1
    19   163   164    1
    20    87    86    1
    21   164   165   ar
    22   164   166   ar
    23    91    93   ar
    24    91    90   ar
    25   167   168    1
    26   108   111    1
    27   108   109    1
    28   111   112    1
    29   112   113    1
    30    93    94   ar
    31    86    89    1
    32    86    85    1
    33    89    90    1
    34    90    92   ar
    35   109   110    2
    36   115   113   ar
    37   173   175   ar
    38   173   172   ar
    39   175   176   ar
    40    94    92   ar
    41   168   169    1
    42   168   171    1
    43   113   114   ar
    44   169   170    2
    45   172   171    1
    46   172   174   ar
    47   176   174   ar
    48    29    31   ar
    49    29    27   ar
    50    31    32   ar
    51    79    78    2
    52    26    27    1
    53    26    23    1
    54    27    28   ar
    55    32    30   ar
    56    24    23    1
    57    24    25    2
    58    23    22    1
    59    69    68    2
    60    75    74   ar
    61    75    73   ar
    62    28    30   ar
    63    78    77    1
    64    83    82   ar
    65    74    72   ar
    66    73    71   ar
    67    77    76    1
    68    77    80    1
    69    68    76   am
    70    68    67    1
    71    16    14   am
    72    22    19   am
    73    72    71   ar
    74    20    19    2
    75    71    70    1
    76    82    84   ar
    77    82    81    1
    78    80    81    1
    79   154   155    1
    80   154   153    1
    81   155   156    2
    82   157   156    1
    83    19    18    1
    84   158   156    1
    85    67    70    1
    86    67    66    1
    87    14    15    2
    88    14    13    1
    89    13    10    1
    90   153   152    1
    91    18    17    1
    92    18    21    1
    93    17    11   am
    94   152   149    1
    95    11    10    1
    96    11    12    2
    97    10     9    1
    98    62    61    2
    99   121   123    1
   100   121   120    1
   101     4     3    2
   102   147   145    1
   103   149   150    1
   104   149   148    1
   105   122   120    1
   106     9     3   am
   107   143   142    2
   108   145   146    1
   109   145   144    1
   110     3     2    1
   111    61    60    1
   112   120   117    1
   113   150   151    2
   114   148   142   am
   115   142   141    1
   116    60    59    1
   117    60    63    1
   118    64    63    1
   119     1     2    1
   120   144   141    1
   121     2     5    1
   122     5     6    1
   123    58    56    1
   124   141   140    1
   125    63    65    1
   126   117   116    1
   127   117   118    1
   128    49    50   ar
   129    49    47   ar
   130    50    48   ar
   131   118   119    2
   132   118   124   am
   133     8     6   am
   134     6     7    2
   135    56    55    1
   136    56    57    1
   137    55    52    1
   138    47    45   ar
   139   124   125    1
   140    48    46   ar
   141   139   138    1
   142    39    37    1
   143   136   138   ar
   144   136   134   ar
   145   125   126    1
   146   138   137   ar
   147    45    46   ar
   148    45    44    1
   149    54    53    2
   150    52    53    1
   151    52    51    1
   152   134   133   ar
   153    38    37    1
   154    37    34    1
   155   137   135   ar
   156    44    41    1
   157   126   127    2
   158   133   135   ar
   159   133   132    1
   160   132   129    1
   161    36    35    2
   162    34    35    1
   163    34    33    1
   164    35    40   am
   165    40    41    1
   166    41    42    1
   167   129   128    1
   168   129   130    1
   169    42    43    2
   170   130   131    2
