@<TRIPOS>MOLECULE
tmp/1qf3B00.pdb
 72 65 0 0 0
SMALL
GASTEIGER

@<TRIPOS>ATOM
      1  N         -0.2260   26.0480   14.9710 N.3    80  ASP80      -0.1239
      2  CA         0.6300   25.3280   14.0420 C.3    80  ASP80       0.1674
      3  C          1.7840   24.7730   14.8550 C.2    80  ASP80       0.2266
      4  O          2.3210   25.4680   15.7170 O.2    80  ASP80      -0.2867
      5  CB         1.2150   26.2760   12.9940 C.3    80  ASP80       0.1410
      6  CG         0.1850   26.7850   12.0190 C.2    80  ASP80       0.3668
      7  OD1       -1.0220   26.7410   12.3360 O.co2  80  ASP80      -0.2456
      8  OD2        0.5970   27.2320   10.9260 O.co2  80  ASP80      -0.2456
      9  N          5.1090   24.4400   15.6440 N.3    82  ALA82      -0.1231
     10  CA         6.3110   25.1810   15.2840 C.3    82  ALA82       0.1694
     11  C          6.9410   25.6620   16.5880 C.2    82  ALA82       0.2592
     12  O          6.2410   25.7500   17.6060 O.2    82  ALA82      -0.2718
     13  CB         5.9360   26.3630   14.4010 C.3    82  ALA82       0.0304
     14  N          8.2240   26.0290   16.5690 N.am   83  ASP83      -0.1974
     15  CA         9.0650   25.9890   15.3670 C.3    83  ASP83       0.1709
     16  C         10.1460   24.9170   15.3610 C.2    83  ASP83       0.2293
     17  O         10.8090   24.7060   14.3470 O.2    83  ASP83      -0.2864
     18  CB         9.7490   27.3460   15.1620 C.3    83  ASP83       0.1436
     19  CG         8.8300   28.3850   14.5750 C.2    83  ASP83       0.3671
     20  OD1        8.0440   29.0080   15.3270 O.co2  83  ASP83      -0.2456
     21  OD2        8.9170   28.5940   13.3580 O.co2  83  ASP83      -0.2456
     22  N          9.9980   32.3550   17.0690 N.3   103  GLY103     -0.1210
     23  CA         9.7550   31.7870   15.7570 C.3   103  GLY103      0.1956
     24  C         10.9050   31.0620   15.0920 C.2   103  GLY103      0.2612
     25  O         11.6450   30.3030   15.7350 O.2   103  GLY103     -0.2717
     26  N         11.0680   31.3350   13.8030 N.am  104  GLY104     -0.1956
     27  CA        12.1070   30.7070   13.0050 C.3   104  GLY104      0.1869
     28  C         13.5600   30.9460   13.3740 C.2   104  GLY104      0.2309
     29  O         14.4410   30.4380   12.6870 O.2   104  GLY104     -0.2863
     30  N          9.1770   23.7400   10.7170 N.3   125  TYR125     -0.1241
     31  CA         8.4950   24.7920    9.9620 C.3   125  TYR125      0.1605
     32  C          9.4080   25.4450    8.9250 C.2   125  TYR125      0.2264
     33  O         10.4940   25.9350    9.2380 O.2   125  TYR125     -0.2867
     34  CB         7.9040   25.8710   10.8850 C.3   125  TYR125      0.0534
     35  CG         7.0680   26.8850   10.1250 C.ar  125  TYR125     -0.0201
     36  CD1        7.6670   27.9540    9.4590 C.ar  125  TYR125     -0.0009
     37  CD2        5.6870   26.7380   10.0150 C.ar  125  TYR125     -0.0009
     38  CE1        6.9230   28.8370    8.6860 C.ar  125  TYR125      0.0417
     39  CE2        4.9280   27.6180    9.2420 C.ar  125  TYR125      0.0417
     40  CZ         5.5550   28.6700    8.5840 C.ar  125  TYR125      0.1957
     41  OH         4.8260   29.5460    7.8090 O.3   125  TYR125     -0.2866
     42  N         10.6670   28.2470    7.0280 N.3   127  ASN127     -0.1240
     43  CA        10.7660   29.7070    7.0030 C.3   127  ASN127      0.1653
     44  C         11.5320   30.1190    5.7500 C.2   127  ASN127      0.2266
     45  O         12.7590   30.0430    5.7030 O.2   127  ASN127     -0.2867
     46  CB        11.4930   30.2390    8.2360 C.3   127  ASN127      0.1155
     47  CG        10.7650   29.9310    9.5150 C.2   127  ASN127      0.2627
     48  OD1       10.9510   28.8650   10.1070 O.2   127  ASN127     -0.2716
     49  ND2        9.9220   30.8580    9.9600 N.am  127  ASN127     -0.0877
     50  N         12.3680   32.9450    4.6700 N.3   129  GLU129     -0.1245
     51  CA        13.3430   34.0100    4.9130 C.3   129  GLU129      0.1567
     52  C         14.7190   33.4810    5.3350 C.2   129  GLU129      0.2260
     53  O         15.7210   34.1860    5.2380 O.2   129  GLU129     -0.2867
     54  CB        12.8100   35.0240    5.9340 C.3   129  GLU129      0.0388
     55  CG        12.5950   34.5040    7.3440 C.3   129  GLU129      0.1160
     56  CD        11.1590   34.0260    7.6160 C.2   129  GLU129      0.3649
     57  OE1       10.4230   33.6900    6.6600 O.co2 129  GLU129     -0.2457
     58  OE2       10.7700   33.9860    8.8000 O.co2 129  GLU129     -0.2457
     59  N          5.8450   31.3100   18.0010 N.3   211  SER211     -0.1217
     60  CA         5.5090   32.6320   17.5080 C.3   211  SER211      0.1889
     61  C          4.1290   32.9380   18.0560 C.2   211  SER211      0.2288
     62  O          3.7930   32.4940   19.1500 O.2   211  SER211     -0.2866
     63  CB         5.5050   32.6300   15.9870 C.3   211  SER211      0.2089
     64  OG         4.5420   31.7230   15.4960 O.3   211  SER211     -0.2183
     65  N          1.0840   32.4430   16.1780 N.3   213  GLY213     -0.1210
     66  CA         0.2460   31.3460   15.7240 C.3   213  GLY213      0.1956
     67  C          0.9210   29.9950   15.7130 C.2   213  GLY213      0.2612
     68  O          0.2490   28.9890   15.5240 O.2   213  GLY213     -0.2717
     69  N          2.2430   29.9740   15.8590 N.am  214  GLY214     -0.1956
     70  CA         2.9650   28.7180   15.8690 C.3   214  GLY214      0.1869
     71  C          3.3750   28.3460   17.2780 C.2   214  GLY214      0.2309
     72  O          4.1350   29.0820   17.9020 O.2   214  GLY214     -0.2863
@<TRIPOS>BOND
     1    50    51    1
     2    51    52    1
     3    51    54    1
     4    53    52    2
     5    45    44    2
     6    44    43    1
     7    54    55    1
     8    57    56   ar
     9    43    42    1
    10    43    46    1
    11    55    56    1
    12    56    58   ar
    13    41    40    1
    14    46    47    1
    15    40    38   ar
    16    40    39   ar
    17    38    36   ar
    18    32    33    2
    19    32    31    1
    20    39    37   ar
    21    36    35   ar
    22    47    49   am
    23    47    48    2
    24    31    30    1
    25    31    34    1
    26    37    35   ar
    27    35    34    1
    28     8     6   ar
    29     6     7   ar
    30     6     5    1
    31    29    28    2
    32     5     2    1
    33    27    28    1
    34    27    26    1
    35    21    19   ar
    36    26    24   am
    37     2     3    1
    38     2     1    1
    39    17    16    2
    40    13    10    1
    41    19    18    1
    42    19    20   ar
    43     3     4    2
    44    24    25    2
    45    24    23    1
    46    18    15    1
    47    10     9    1
    48    10    11    1
    49    16    15    1
    50    15    14    1
    51    64    63    1
    52    68    67    2
    53    67    66    1
    54    67    69   am
    55    66    65    1
    56    23    22    1
    57    69    70    1
    58    70    71    1
    59    63    60    1
    60    14    11   am
    61    11    12    2
    62    71    72    2
    63    60    59    1
    64    60    61    1
    65    61    62    2
