@<TRIPOS>MOLECULE
tmp/1qf6B00.pdb
 148 136 0 0 0
SMALL
GASTEIGER

@<TRIPOS>ATOM
      1  N         34.5080   70.7630   54.6260 N.3   331  MET331     -0.1245
      2  CA        34.6790   72.1680   54.2070 C.3   331  MET331      0.1570
      3  C         33.9620   73.0740   55.1880 C.2   331  MET331      0.2261
      4  O         33.2210   72.5940   56.0480 O.2   331  MET331     -0.2867
      5  CB        34.1710   72.4350   52.7820 C.3   331  MET331      0.0387
      6  CG        33.1280   71.4730   52.2740 C.3   331  MET331      0.0595
      7  SD        31.7010   71.3980   53.3230 S.3   331  MET331     -0.1393
      8  CE        30.4910   70.9670   52.1060 C.3   331  MET331      0.0692
      9  N         39.0200   65.0870   54.8430 N.3   362  ARG362     -0.1245
     10  CA        38.2960   64.3380   53.8310 C.3   362  ARG362      0.1563
     11  C         39.0290   63.0340   53.7150 C.2   362  ARG362      0.2260
     12  O         40.2510   63.0090   53.7590 O.2   362  ARG362     -0.2867
     13  CB        38.3360   65.0370   52.4900 C.3   362  ARG362      0.0307
     14  CG        37.6450   66.3570   52.4830 C.3   362  ARG362      0.0489
     15  CD        37.6290   67.0070   51.1210 C.3   362  ARG362      0.2205
     16  NE        37.1770   68.3830   51.2570 N.pl3 362  ARG362     -0.0865
     17  CZ        37.1030   69.2480   50.2530 C.cat 362  ARG362      0.5346
     18  NH1       37.4530   68.8740   49.0300 N.pl3 362  ARG362      0.1354
     19  NH2       36.6910   70.4940   50.4720 N.pl3 362  ARG362      0.1354
     20  N         40.3090   60.8420   51.5420 N.3   364  GLU364     -0.1245
     21  CA        40.7720   60.6910   50.1730 C.3   364  GLU364      0.1567
     22  C         41.1750   59.2940   49.7650 C.2   364  GLU364      0.2260
     23  O         41.3820   58.4150   50.6070 O.2   364  GLU364     -0.2867
     24  CB        41.9330   61.6500   49.9830 C.3   364  GLU364      0.0388
     25  CG        41.5420   63.0920   50.3540 C.3   364  GLU364      0.1160
     26  CD        40.8290   63.8090   49.1980 C.2   364  GLU364      0.3649
     27  OE1       40.4110   63.1230   48.2320 O.co2 364  GLU364     -0.2457
     28  OE2       40.6910   65.0590   49.2400 O.co2 364  GLU364     -0.2457
     29  N         52.6700   67.0870   50.7400 N.3   372  LEU372     -0.1231
     30  CA        51.7700   68.1050   51.2470 C.3   372  LEU372      0.1693
     31  C         50.7110   68.4510   50.2170 C.2   372  LEU372      0.2592
     32  O         49.7550   69.1500   50.5340 O.2   372  LEU372     -0.2718
     33  CB        52.5250   69.3760   51.5270 C.3   372  LEU372      0.0284
     34  CG        53.6690   69.2600   52.4980 C.3   372  LEU372      0.0019
     35  CD1       54.3690   70.5940   52.5700 C.3   372  LEU372      0.0001
     36  CD2       53.1550   68.8530   53.8510 C.3   372  LEU372      0.0001
     37  N         50.8830   67.9950   48.9820 N.am  373  MET373     -0.1965
     38  CA        49.9510   68.3410   47.9130 C.3   373  MET373      0.1736
     39  C         48.5560   67.7900   48.0800 C.2   373  MET373      0.2616
     40  O         47.5790   68.5240   47.8930 O.2   373  MET373     -0.2715
     41  CB        50.4680   67.8730   46.5460 C.3   373  MET373      0.0427
     42  CG        51.8550   68.3520   46.1670 C.3   373  MET373      0.0599
     43  SD        52.0430   70.1220   46.2030 S.3   373  MET373     -0.1393
     44  CE        53.5860   70.3200   45.2790 C.3   373  MET373      0.0692
     45  N         48.4700   66.4940   48.3940 N.am  374  ARG374     -0.1963
     46  CA        47.1930   65.8240   48.5620 C.3   374  ARG374      0.1729
     47  C         47.1970   65.0880   49.8920 C.2   374  ARG374      0.2616
     48  O         47.7230   63.9740   49.9820 O.2   374  ARG374     -0.2715
     49  CB        46.9780   64.8400   47.4070 C.3   374  ARG374      0.0348
     50  CG        45.5980   64.1660   47.3280 C.3   374  ARG374      0.0492
     51  CD        44.5240   65.1870   47.0040 C.3   374  ARG374      0.2205
     52  NE        43.1600   64.6550   46.9130 N.pl3 374  ARG374     -0.0865
     53  CZ        42.6960   63.8780   45.9320 C.cat 374  ARG374      0.5346
     54  NH1       43.4900   63.5100   44.9130 N.pl3 374  ARG374      0.1354
     55  NH2       41.4220   63.4770   45.9750 N.pl3 374  ARG374      0.1354
     56  N         46.6020   65.7070   50.9140 N.am  375  VAL375     -0.1977
     57  CA        46.5310   65.1350   52.2520 C.3   375  VAL375      0.1596
     58  C         45.0940   64.8280   52.6530 C.2   375  VAL375      0.2287
     59  O         44.1690   65.1540   51.9200 O.2   375  VAL375     -0.2864
     60  CB        47.1050   66.1040   53.2850 C.3   375  VAL375      0.0276
     61  CG1       48.6090   65.9600   53.3820 C.3   375  VAL375      0.0022
     62  CG2       46.7520   67.5200   52.8870 C.3   375  VAL375      0.0022
     63  N         43.6810   69.2730   55.9020 N.3   378  PHE378     -0.1241
     64  CA        44.3650   70.4500   55.4180 C.3   378  PHE378      0.1605
     65  C         43.6890   71.6590   55.9520 C.2   378  PHE378      0.2264
     66  O         42.6310   71.5710   56.5450 O.2   378  PHE378     -0.2867
     67  CB        44.3680   70.5170   53.9040 C.3   378  PHE378      0.0534
     68  CG        43.0820   70.0930   53.2740 C.ar  378  PHE378     -0.0203
     69  CD1       42.7440   68.7460   53.1930 C.ar  378  PHE378     -0.0042
     70  CD2       42.2000   71.0310   52.7650 C.ar  378  PHE378     -0.0042
     71  CE1       41.5340   68.3330   52.6120 C.ar  378  PHE378     -0.0003
     72  CE2       40.9860   70.6400   52.1850 C.ar  378  PHE378     -0.0003
     73  CZ        40.6490   69.2810   52.1070 C.ar  378  PHE378     -0.0000
     74  N         42.2660   75.2350   54.7870 N.3   380  GLN380     -0.1245
     75  CA        41.8410   76.0660   53.6520 C.3   380  GLN380      0.1566
     76  C         41.7590   77.4990   54.0550 C.2   380  GLN380      0.2260
     77  O         41.2400   77.8360   55.1160 O.2   380  GLN380     -0.2867
     78  CB        40.4550   75.6810   53.1880 C.3   380  GLN380      0.0367
     79  CG        40.3650   74.8840   51.9540 C.3   380  GLN380      0.0905
     80  CD        38.9960   74.2520   51.8420 C.2   380  GLN380      0.2608
     81  OE1       38.6940   73.5580   50.8730 O.2   380  GLN380     -0.2717
     82  NE2       38.1590   74.4850   52.8420 N.am  380  GLN380     -0.0878
     83  N         32.6750   76.8990   38.5060 N.3   464  LYS464     -0.1245
     84  CA        33.9090   77.3120   39.1770 C.3   464  LYS464      0.1561
     85  C         34.9850   77.9200   38.2900 C.2   464  LYS464      0.2260
     86  O         35.1000   77.5940   37.1190 O.2   464  LYS464     -0.2867
     87  CB        34.5480   76.0980   39.8650 C.3   464  LYS464      0.0271
     88  CG        33.9780   75.7500   41.2120 C.3   464  LYS464      0.0035
     89  CD        33.7390   74.2430   41.3980 C.3   464  LYS464      0.0206
     90  CE        35.0010   73.4140   41.5470 C.3   464  LYS464      0.1093
     91  NZ        35.6420   73.2080   40.2450 N.3   464  LYS464     -0.1314
     92  N         45.3440   72.2290   41.5670 N.3   478  GLN478     -0.1231
     93  CA        44.4110   73.3160   41.7180 C.3   478  GLN478      0.1698
     94  C         44.7030   74.0940   42.9810 C.2   478  GLN478      0.2592
     95  O         44.9700   73.5140   44.0210 O.2   478  GLN478     -0.2718
     96  CB        43.0160   72.7460   41.7930 C.3   478  GLN478      0.0381
     97  CG        41.9450   73.7330   42.1950 C.3   478  GLN478      0.0905
     98  CD        40.5980   73.1270   41.9840 C.2   478  GLN478      0.2608
     99  OE1       40.3320   72.5980   40.9070 O.2   478  GLN478     -0.2717
    100  NE2       39.7400   73.1740   42.9990 N.am  478  GLN478     -0.0878
    101  N         44.6670   75.4120   42.9060 N.am  479  CYS479     -0.1970
    102  CA        44.9010   76.1950   44.1040 C.3   479  CYS479      0.1712
    103  C         43.7420   77.1250   44.3910 C.2   479  CYS479      0.2296
    104  O         42.7500   76.7050   44.9840 O.2   479  CYS479     -0.2864
    105  CB        46.2140   76.9380   44.0000 C.3   479  CYS479      0.0983
    106  SG        47.5400   75.7830   44.3310 S.3   479  CYS479     -0.0798
    107  N         40.2940   79.0890   43.8920 N.3   481  THR481     -0.1218
    108  CA        39.0850   78.8250   43.1290 C.3   481  THR481      0.1862
    109  C         37.9480   79.7390   43.5630 C.2   481  THR481      0.2287
    110  O         37.9420   80.2750   44.6800 O.2   481  THR481     -0.2866
    111  CB        38.6080   77.3700   43.2430 C.3   481  THR481      0.1770
    112  OG1       38.0160   77.1460   44.5250 O.3   481  THR481     -0.2211
    113  CG2       39.7790   76.4220   43.0380 C.3   481  THR481      0.0375
    114  N         33.6670   79.7700   43.3810 N.3   483  GLN483     -0.1245
    115  CA        32.3940   79.1500   43.0330 C.3   483  GLN483      0.1566
    116  C         31.2500   80.1370   43.2800 C.2   483  GLN483      0.2260
    117  O         31.2460   80.8690   44.2830 O.2   483  GLN483     -0.2867
    118  CB        32.1360   77.8760   43.8540 C.3   483  GLN483      0.0367
    119  CG        33.3860   77.0480   44.1780 C.3   483  GLN483      0.0905
    120  CD        33.0710   75.7010   44.8290 C.2   483  GLN483      0.2608
    121  OE1       32.1430   75.5870   45.6270 O.2   483  GLN483     -0.2717
    122  NE2       33.8580   74.6830   44.5010 N.am  483  GLN483     -0.0878
    123  N         38.6600   80.4660   47.6220 N.3   512  ALA512     -0.1245
    124  CA        39.9130   80.2150   48.3220 C.3   512  ALA512      0.1562
    125  C         41.0240   80.7760   47.4340 C.2   512  ALA512      0.2260
    126  O         41.0010   80.5990   46.2170 O.2   512  ALA512     -0.2867
    127  CB        40.1110   78.7490   48.5310 C.3   512  ALA512      0.0290
    128  N         44.2880   77.9250   48.3710 N.3   515  GLY515     -0.1210
    129  CA        43.7860   76.5690   48.2090 C.3   515  GLY515      0.1956
    130  C         43.9110   76.0170   49.6090 C.2   515  GLY515      0.2612
    131  O         43.2150   76.4730   50.5180 O.2   515  GLY515     -0.2717
    132  N         44.7800   75.0450   49.8220 N.am  516  SER516     -0.1952
    133  CA        44.9730   74.5700   51.1770 C.3   516  SER516      0.1924
    134  C         46.3620   75.0880   51.5560 C.2   516  SER516      0.2314
    135  O         47.2060   75.2250   50.7000 O.2   516  SER516     -0.2863
    136  CB        44.9200   73.0460   51.2260 C.3   516  SER516      0.2116
    137  OG        46.1620   72.4600   50.8930 O.3   516  SER516     -0.2180
    138  N         49.0740   72.3610   50.6820 N.3   519  ARG519     -0.1245
    139  CA        49.4170   72.3160   49.2670 C.3   519  ARG519      0.1563
    140  C         50.1320   73.5800   48.7580 C.2   519  ARG519      0.2260
    141  O         50.8700   73.5300   47.7700 O.2   519  ARG519     -0.2867
    142  CB        48.1610   72.0730   48.4230 C.3   519  ARG519      0.0307
    143  CG        48.3960   72.1440   46.9420 C.3   519  ARG519      0.0489
    144  CD        47.1460   71.9270   46.1520 C.3   519  ARG519      0.2205
    145  NE        46.6250   70.5800   46.3310 N.pl3 519  ARG519     -0.0865
    146  CZ        45.5110   70.1290   45.7620 C.cat 519  ARG519      0.5346
    147  NH1       44.7870   70.9180   44.9730 N.pl3 519  ARG519      0.1354
    148  NH2       45.1170   68.8830   45.9680 N.pl3 519  ARG519      0.1354
@<TRIPOS>BOND
     1    86    85    2
     2    85    84    1
     3    83    84    1
     4    84    87    1
     5    87    88    1
     6    91    90    1
     7    99    98    2
     8    88    89    1
     9    89    90    1
    10    92    93    1
    11    93    96    1
    12    93    94    1
    13    96    97    1
    14    98    97    1
    15    98   100   am
    16   101    94   am
    17   101   102    1
    18    94    95    2
    19   115   116    1
    20   115   114    1
    21   115   118    1
    22   113   111    1
    23   108   111    1
    24   108   109    1
    25   108   107    1
    26   111   112    1
    27   116   117    2
    28   109   110    2
    29   118   119    1
    30   105   102    1
    31   105   106    1
    32   102   103    1
    33   119   120    1
    34   103   104    2
    35   122   120   am
    36   120   121    2
    37    54    53    1
    38   147   146    1
    39    44    43    1
    40   146   148    1
    41   146   145    2
    42    53    55    1
    43    53    52    2
    44   144   145    1
    45   144   143    1
    46    42    43    1
    47    42    41    1
    48   126   125    2
    49    41    38    1
    50    52    51    1
    51   143   142    1
    52    51    50    1
    53    50    49    1
    54    49    46    1
    55   125   124    1
    56   123   124    1
    57   141   140    2
    58    40    39    2
    59    38    39    1
    60    38    37    1
    61    39    45   am
    62   129   128    1
    63   129   130    1
    64    27    26   ar
    65   124   127    1
    66    45    46    1
    67   142   139    1
    68    46    47    1
    69   140   139    1
    70    37    31   am
    71    18    17    1
    72    26    28   ar
    73    26    25    1
    74   139   138    1
    75   130   132   am
    76   130   131    2
    77    22    21    1
    78    22    23    2
    79   132   133    1
    80    47    48    2
    81    47    56   am
    82    24    21    1
    83    24    25    1
    84    21    20    1
    85    31    32    2
    86    31    30    1
    87    17    19    1
    88    17    16    2
    89   135   134    2
    90    29    30    1
    91    81    80    2
    92   137   136    1
    93    56    57    1
    94    15    16    1
    95    15    14    1
    96   133   136    1
    97   133   134    1
    98    30    33    1
    99    33    34    1
   100    80    79    1
   101    80    82   am
   102    59    58    2
   103    79    78    1
   104     8     7    1
   105    73    72   ar
   106    73    71   ar
   107    72    70   ar
   108    57    58    1
   109    57    60    1
   110     6     5    1
   111     6     7    1
   112    14    13    1
   113    13    10    1
   114    34    35    1
   115    34    36    1
   116    71    69   ar
   117    70    68   ar
   118     5     2    1
   119    62    60    1
   120    78    75    1
   121    69    68   ar
   122    68    67    1
   123    60    61    1
   124    75    76    1
   125    75    74    1
   126    11    12    2
   127    11    10    1
   128    10     9    1
   129    67    64    1
   130    76    77    2
   131     2     1    1
   132     2     3    1
   133     3     4    2
   134    64    63    1
   135    64    65    1
   136    65    66    2
