@<TRIPOS>MOLECULE
tmp/1qf9A01.pdb
 184 172 0 0 0
SMALL
GASTEIGER

@<TRIPOS>ATOM
      1  N         35.7220   64.4900  -17.6200 N.3    15  PRO15      -0.2116
      2  CA        35.1700   65.2600  -16.5000 C.3    15  PRO15       0.1372
      3  C         34.6550   64.3570  -15.3800 C.2    15  PRO15       0.2244
      4  O         33.8090   63.4950  -15.6110 O.2    15  PRO15      -0.2868
      5  CB        34.0340   66.0660  -17.1400 C.3    15  PRO15       0.0268
      6  CG        34.2840   66.0050  -18.6080 C.3    15  PRO15       0.0207
      7  CD        34.9690   64.7160  -18.8660 C.3    15  PRO15       0.0892
      8  N         40.3880   62.4850  -11.2180 N.3    19  LYS19      -0.1245
      9  CA        41.7820   62.9060  -11.3010 C.3    19  LYS19       0.1561
     10  C         42.2310   63.6090  -10.0170 C.2    19  LYS19       0.2260
     11  O         43.2470   63.2390   -9.4240 O.2    19  LYS19      -0.2867
     12  CB        41.9850   63.8300  -12.5080 C.3    19  LYS19       0.0271
     13  CG        41.5180   63.2240  -13.8360 C.3    19  LYS19       0.0035
     14  CD        41.7670   64.1590  -15.0190 C.3    19  LYS19       0.0206
     15  CE        40.8130   65.3540  -15.0390 C.3    19  LYS19       0.1093
     16  NZ        39.3800   64.9700  -15.1040 N.3    19  LYS19      -0.1314
     17  N         46.3250   71.1280  -10.2700 N.3    36  SER36      -0.1202
     18  CA        45.1180   71.0210  -11.0770 C.3    36  SER36       0.2020
     19  C         44.9320   72.2910  -11.8980 C.2    36  SER36       0.2619
     20  O         44.7920   73.3810  -11.3450 O.2    36  SER36      -0.2717
     21  CB        43.9040   70.7800  -10.1730 C.3    36  SER36       0.2103
     22  OG        42.6960   71.1330  -10.8150 O.3    36  SER36      -0.2182
     23  N         45.0490   72.1580  -13.2180 N.am   37  ALA37      -0.1965
     24  CA        44.9200   73.3000  -14.1200 C.3    37  ALA37       0.1728
     25  C         43.5660   73.9890  -13.9490 C.2    37  ALA37       0.2616
     26  O         43.4890   75.2170  -13.9430 O.2    37  ALA37      -0.2715
     27  CB        45.1090   72.8540  -15.5700 C.3    37  ALA37       0.0334
     28  N         42.5230   73.1950  -13.7180 N.am   38  GLY38      -0.1955
     29  CA        41.1970   73.7420  -13.4880 C.3    38  GLY38       0.1869
     30  C         41.0970   74.5520  -12.2080 C.2    38  GLY38       0.2309
     31  O         40.5350   75.6460  -12.2020 O.2    38  GLY38      -0.2863
     32  N         42.9940   77.7980  -12.6780 N.3    41  LEU41      -0.1231
     33  CA        42.2130   78.7370  -13.4820 C.3    41  LEU41       0.1693
     34  C         41.0830   79.3770  -12.6790 C.2    41  LEU41       0.2591
     35  O         40.8550   80.5820  -12.7790 O.2    41  LEU41      -0.2718
     36  CB        41.6430   78.0360  -14.7210 C.3    41  LEU41       0.0284
     37  CG        42.6470   77.7500  -15.8410 C.3    41  LEU41       0.0019
     38  CD1       42.0520   76.7570  -16.8180 C.3    41  LEU41       0.0001
     39  CD2       43.0140   79.0400  -16.5540 C.3    41  LEU41       0.0001
     40  N         40.4110   78.5750  -11.8540 N.am   42  ARG42      -0.1980
     41  CA        39.3980   79.0780  -10.9290 C.3    42  ARG42       0.1597
     42  C         39.9810   80.0590   -9.9120 C.2    42  ARG42       0.2287
     43  O         39.3770   81.0910   -9.6310 O.2    42  ARG42      -0.2864
     44  CB        38.7250   77.9210  -10.1940 C.3    42  ARG42       0.0334
     45  CG        37.7480   77.1300  -11.0430 C.3    42  ARG42       0.0492
     46  CD        36.9050   76.1730  -10.1980 C.3    42  ARG42       0.2205
     47  NE        37.6730   75.0260   -9.7120 N.pl3  42  ARG42      -0.0865
     48  CZ        38.0170   73.9760  -10.4540 C.cat  42  ARG42       0.5346
     49  NH1       37.4950   73.8070  -11.6630 N.pl3  42  ARG42       0.1354
     50  NH2       38.9020   73.1000   -9.9970 N.pl3  42  ARG42       0.1354
     51  N         34.3330   80.6910  -20.2940 N.3    58  MET58      -0.1230
     52  CA        34.8120   79.4780  -20.9460 C.3    58  MET58       0.1702
     53  C         34.6110   78.2360  -20.0840 C.2    58  MET58       0.2592
     54  O         34.1350   77.2160  -20.5740 O.2    58  MET58      -0.2718
     55  CB        36.2840   79.6300  -21.3220 C.3    58  MET58       0.0401
     56  CG        36.5150   80.7420  -22.3240 C.3    58  MET58       0.0596
     57  SD        38.0000   80.5180  -23.2850 S.3    58  MET58      -0.1393
     58  CE        38.1040   82.1080  -24.1190 C.3    58  MET58       0.0692
     59  N         34.8860   78.3540  -18.7870 N.am   59  ILE59      -0.1980
     60  CA        34.6530   77.2520  -17.8520 C.3    59  ILE59       0.1595
     61  C         33.1850   76.8250  -17.8310 C.2    59  ILE59       0.2287
     62  O         32.8780   75.6360  -17.9260 O.2    59  ILE59      -0.2864
     63  CB        35.1100   77.6260  -16.4180 C.3    59  ILE59       0.0276
     64  CG1       36.6410   77.5930  -16.3400 C.3    59  ILE59       0.0022
     65  CG2       34.5020   76.6640  -15.3970 C.3    59  ILE59       0.0022
     66  CD1       37.2000   77.7980  -14.9440 C.3    59  ILE59       0.0001
     67  N         32.4640   74.7590  -20.8430 N.3    62  GLY62      -0.1210
     68  CA        33.3130   73.6080  -21.0910 C.3    62  GLY62       0.1956
     69  C         34.3560   73.8170  -22.1770 C.2    62  GLY62       0.2612
     70  O         34.8610   72.8520  -22.7400 O.2    62  GLY62      -0.2717
     71  N         34.7400   75.0700  -22.4120 N.am   63  GLU63      -0.1965
     72  CA        35.7800   75.3940  -23.3850 C.3    63  GLU63       0.1733
     73  C         37.1690   75.4050  -22.7580 C.2    63  GLU63       0.2616
     74  O         37.3290   75.7330  -21.5810 O.2    63  GLU63      -0.2715
     75  CB        35.5120   76.7590  -24.0160 C.3    63  GLU63       0.0429
     76  CG        34.1800   76.8800  -24.7360 C.3    63  GLU63       0.1163
     77  CD        33.9220   78.2960  -25.2190 C.2    63  GLU63       0.3649
     78  OE1       34.6790   78.7700  -26.0900 O.co2  63  GLU63      -0.2457
     79  OE2       33.0030   78.9580  -24.6920 O.co2  63  GLU63      -0.2457
     80  N         38.1790   75.1800  -23.5930 N.am   64  ILE64      -0.1963
     81  CA        39.5700   75.2530  -23.1700 C.3    64  ILE64       0.1727
     82  C         40.0930   76.6860  -23.2720 C.2    64  ILE64       0.2616
     83  O         40.0100   77.3230  -24.3230 O.2    64  ILE64      -0.2715
     84  CB        40.4660   74.3090  -24.0130 C.3    64  ILE64       0.0290
     85  CG1       39.8990   72.8840  -23.9910 C.3    64  ILE64       0.0022
     86  CG2       41.8970   74.3220  -23.4870 C.3    64  ILE64       0.0023
     87  CD1       39.6320   72.3380  -22.6020 C.3    64  ILE64       0.0001
     88  N         40.4980   77.2230  -22.1270 N.am   65  VAL65      -0.1977
     89  CA        41.0670   78.5610  -22.0250 C.3    65  VAL65       0.1596
     90  C         42.3500   78.6610  -22.8610 C.2    65  VAL65       0.2287
     91  O         43.0600   77.6680  -23.0460 O.2    65  VAL65      -0.2864
     92  CB        41.3480   78.8950  -20.5300 C.3    65  VAL65       0.0276
     93  CG1       42.0940   80.2070  -20.3920 C.3    65  VAL65       0.0022
     94  CG2       40.0340   78.9440  -19.7570 C.3    65  VAL65       0.0022
     95  N         46.9350   79.4410  -19.0310 N.3    70  THR70      -0.1218
     96  CA        47.0290   78.2110  -18.2480 C.3    70  THR70       0.1862
     97  C         48.4770   77.7530  -18.0390 C.2    70  THR70       0.2287
     98  O         48.8480   77.3350  -16.9400 O.2    70  THR70      -0.2866
     99  CB        46.2150   77.0730  -18.9080 C.3    70  THR70       0.1770
    100  OG1       44.8970   77.5540  -19.2060 O.3    70  THR70      -0.2211
    101  CG2       46.1070   75.8690  -17.9730 C.3    70  THR70       0.0375
    102  N         47.4650   68.1250  -13.5790 N.3    89  ASP89      -0.1225
    103  CA        46.1680   67.4620  -13.5530 C.3    89  ASP89       0.1805
    104  C         45.2220   68.2140  -14.5010 C.2    89  ASP89       0.2598
    105  O         45.0290   69.4220  -14.3740 O.2    89  ASP89      -0.2718
    106  CB        45.6630   67.4610  -12.0960 C.3    89  ASP89       0.1424
    107  CG        44.1680   67.1460  -11.9470 C.2    89  ASP89       0.3668
    108  OD1       43.4490   66.8820  -12.9320 O.co2  89  ASP89      -0.2456
    109  OD2       43.7160   67.1310  -10.7860 O.co2  89  ASP89      -0.2456
    110  N         44.6700   67.4920  -15.4740 N.am   90  GLY90      -0.1942
    111  CA        43.6960   68.0810  -16.3780 C.3    90  GLY90       0.2014
    112  C         44.3320   68.9410  -17.4580 C.2    90  GLY90       0.2638
    113  O         43.7180   69.8800  -17.9650 O.2    90  GLY90      -0.2714
    114  N         45.5780   68.6190  -17.7900 N.am   91  PHE91      -0.1973
    115  CA        46.3640   69.3380  -18.7930 C.3    91  PHE91       0.1639
    116  C         47.4100   68.3310  -19.2860 C.2    91  PHE91       0.2290
    117  O         47.9460   67.5480  -18.4880 O.2    91  PHE91      -0.2864
    118  CB        47.0450   70.5630  -18.1480 C.3    91  PHE91       0.0560
    119  CG        47.9580   71.3320  -19.0760 C.ar   91  PHE91      -0.0200
    120  CD1       49.2240   70.8410  -19.4060 C.ar   91  PHE91      -0.0042
    121  CD2       47.5630   72.5580  -19.5990 C.ar   91  PHE91      -0.0042
    122  CE1       50.0790   71.5580  -20.2470 C.ar   91  PHE91      -0.0003
    123  CE2       48.4120   73.2850  -20.4380 C.ar   91  PHE91      -0.0003
    124  CZ        49.6730   72.7810  -20.7620 C.ar   91  PHE91      -0.0000
    125  N         44.7570   69.4550  -22.4010 N.3    93  ARG93      -0.1245
    126  CA        43.4180   69.0550  -22.8180 C.3    93  ARG93       0.1563
    127  C         43.1400   69.2970  -24.3070 C.2    93  ARG93       0.2260
    128  O         42.1430   68.8170  -24.8410 O.2    93  ARG93      -0.2867
    129  CB        42.3610   69.7580  -21.9550 C.3    93  ARG93       0.0307
    130  CG        41.8650   68.8900  -20.7920 C.3    93  ARG93       0.0489
    131  CD        40.8120   69.5870  -19.9340 C.3    93  ARG93       0.2205
    132  NE        40.1320   68.6390  -19.0490 N.pl3  93  ARG93      -0.0865
    133  CZ        40.0410   68.7650  -17.7260 C.cat  93  ARG93       0.5346
    134  NH1       40.8480   69.5920  -17.0710 N.pl3  93  ARG93       0.1354
    135  NH2       39.1520   68.0440  -17.0500 N.pl3  93  ARG93       0.1354
    136  N         47.3080   73.3750  -25.8370 N.3    97  ASN97      -0.1240
    137  CA        47.8590   73.1030  -24.5000 C.3    97  ASN97       0.1653
    138  C         49.2260   72.4150  -24.6110 C.2    97  ASN97       0.2266
    139  O         50.2130   72.8580  -24.0110 O.2    97  ASN97      -0.2867
    140  CB        46.9150   72.1880  -23.7080 C.3    97  ASN97       0.1155
    141  CG        45.9000   72.9460  -22.8580 C.2    97  ASN97       0.2627
    142  OD1       45.1620   72.3280  -22.0950 O.2    97  ASN97      -0.2716
    143  ND2       45.8390   74.2660  -22.9990 N.am   97  ASN97      -0.0877
    144  N         28.6050   65.7970   -7.0680 N.3   131  ARG131     -0.1245
    145  CA        29.5770   66.8130   -6.6720 C.3   131  ARG131      0.1563
    146  C         28.9700   68.2130   -6.6830 C.2   131  ARG131      0.2260
    147  O         29.2570   69.0280   -5.8060 O.2   131  ARG131     -0.2867
    148  CB        30.7990   66.7770   -7.5930 C.3   131  ARG131      0.0307
    149  CG        31.9620   67.6240   -7.0980 C.3   131  ARG131      0.0489
    150  CD        33.1930   67.4360   -7.9670 C.3   131  ARG131      0.2205
    151  NE        33.1730   68.3220   -9.1270 N.pl3 131  ARG131     -0.0865
    152  CZ        33.9730   68.2050  -10.1840 C.cat 131  ARG131      0.5346
    153  NH1       35.0860   67.4820  -10.1180 N.pl3 131  ARG131      0.1354
    154  NH2       33.6790   68.8570  -11.3020 N.pl3 131  ARG131      0.1354
    155  N         30.8050   74.8270   -8.0270 N.3   137  ARG137     -0.1245
    156  CA        31.4470   75.0270   -9.3280 C.3   137  ARG137      0.1563
    157  C         30.4060   75.3840  -10.3820 C.2   137  ARG137      0.2260
    158  O         29.3230   74.7990  -10.4060 O.2   137  ARG137     -0.2867
    159  CB        32.1890   73.7570   -9.7530 C.3   137  ARG137      0.0307
    160  CG        33.5730   73.6070   -9.1440 C.3   137  ARG137      0.0489
    161  CD        34.2210   72.2970   -9.5600 C.3   137  ARG137      0.2205
    162  NE        34.4860   72.2470  -10.9980 N.pl3 137  ARG137     -0.0865
    163  CZ        35.4170   71.4840  -11.5660 C.cat 137  ARG137      0.5346
    164  NH1       36.2850   70.8170  -10.8190 N.pl3 137  ARG137      0.1354
    165  NH2       35.4890   71.3980  -12.8870 N.pl3 137  ARG137      0.1354
    166  N         30.2890   74.7360  -13.4110 N.3   139  ASP139     -0.1239
    167  CA        30.2030   73.7750  -14.5070 C.3   139  ASP139      0.1674
    168  C         29.6620   72.4080  -14.0880 C.2   139  ASP139      0.2266
    169  O         29.5540   71.4970  -14.9110 O.2   139  ASP139     -0.2867
    170  CB        31.5680   73.6210  -15.2060 C.3   139  ASP139      0.1410
    171  CG        32.6940   73.1920  -14.2590 C.2   139  ASP139      0.3668
    172  OD1       32.5420   73.2750  -13.0230 O.co2 139  ASP139     -0.2456
    173  OD2       33.7600   72.7920  -14.7710 O.co2 139  ASP139     -0.2456
    174  N         31.2250   69.6720  -21.5400 N.3   148  ARG148     -0.1245
    175  CA        32.5340   69.1740  -21.1280 C.3   148  ARG148      0.1563
    176  C         32.8720   67.8420  -21.7900 C.2   148  ARG148      0.2260
    177  O         34.0100   67.6190  -22.1970 O.2   148  ARG148     -0.2867
    178  CB        32.5920   69.0220  -19.6050 C.3   148  ARG148      0.0307
    179  CG        32.3570   70.3130  -18.8520 C.3   148  ARG148      0.0489
    180  CD        32.5220   70.1090  -17.3680 C.3   148  ARG148      0.2205
    181  NE        33.8920   70.3860  -16.9650 N.pl3 148  ARG148     -0.0865
    182  CZ        34.6610   69.5450  -16.2840 C.cat 148  ARG148      0.5346
    183  NH1       34.1480   68.8500  -15.2720 N.pl3 148  ARG148      0.1354
    184  NH2       35.9560   69.4470  -16.5780 N.pl3 148  ARG148      0.1354
@<TRIPOS>BOND
     1    78    77   ar
     2   136   137    1
     3    77    76    1
     4    77    79   ar
     5   128   127    2
     6    76    75    1
     7   138   137    1
     8   138   139    2
     9   137   140    1
    10    83    82    2
    11   127   126    1
    12    58    57    1
    13    75    72    1
    14    84    85    1
    15    84    86    1
    16    84    81    1
    17    85    87    1
    18   140   141    1
    19    80    81    1
    20    80    73   am
    21    72    73    1
    22    72    71    1
    23    57    56    1
    24    82    81    1
    25    82    88   am
    26    91    90    2
    27   143   141   am
    28    90    89    1
    29   141   142    2
    30   126   125    1
    31   126   129    1
    32    73    74    2
    33    70    69    2
    34    71    69   am
    35    56    55    1
    36   177   176    2
    37    69    68    1
    38    88    89    1
    39    89    92    1
    40   129   130    1
    41   176   175    1
    42   174   175    1
    43    55    52    1
    44   175   178    1
    45    68    67    1
    46    52    51    1
    47    52    53    1
    48   130   131    1
    49   124   123   ar
    50   124   122   ar
    51    54    53    2
    52    92    93    1
    53    92    94    1
    54   123   121   ar
    55   122   120   ar
    56    53    59   am
    57   131   132    1
    58   178   179    1
    59   121   119   ar
    60   120   119   ar
    61   116   115    1
    62   116   117    2
    63   100    99    1
    64   119   118    1
    65   132   133    2
    66    95    96    1
    67    99    96    1
    68    99   101    1
    69     7     6    1
    70     7     1    1
    71   179   180    1
    72   115   118    1
    73   115   114    1
    74    59    60    1
    75     6     5    1
    76    96    97    1
    77    97    98    2
    78   113   112    2
    79    62    61    2
    80    60    61    1
    81    60    63    1
    82   114   112   am
    83   133   134    1
    84   133   135    1
    85     1     2    1
    86   112   111    1
    87   180   181    1
    88     5     2    1
    89   181   182    2
    90    38    37    1
    91   184   182    1
    92    39    37    1
    93     2     3    1
    94    63    64    1
    95    63    65    1
    96   111   110    1
    97    64    66    1
    98   182   183    1
    99    37    36    1
   100     4     3    2
   101    27    24    1
   102   110   104   am
   103   170   167    1
   104   170   171    1
   105    16    15    1
   106    15    14    1
   107    14    13    1
   108   169   168    2
   109   173   171   ar
   110    36    33    1
   111   167   168    1
   112   167   166    1
   113   104   105    2
   114   104   103    1
   115   171   172   ar
   116    24    25    1
   117    24    23    1
   118    25    26    2
   119    25    28   am
   120    13    12    1
   121    28    29    1
   122   102   103    1
   123   103   106    1
   124    29    30    1
   125    33    34    1
   126    33    32    1
   127    23    19   am
   128   108   107   ar
   129   165   163    1
   130    35    34    2
   131    34    40   am
   132    12     9    1
   133    30    31    2
   134   106   107    1
   135   107   109   ar
   136    19    20    2
   137    19    18    1
   138    40    41    1
   139    49    48    1
   140   163   162    2
   141   163   164    1
   142   154   152    1
   143     9     8    1
   144     9    10    1
   145    18    17    1
   146    18    21    1
   147    45    46    1
   148    45    44    1
   149   162   161    1
   150    41    44    1
   151    41    42    1
   152    22    21    1
   153    48    50    1
   154    48    47    2
   155   158   157    2
   156   157   156    1
   157    46    47    1
   158   152   153    1
   159   152   151    2
   160    10    11    2
   161    42    43    2
   162   159   156    1
   163   159   160    1
   164   161   160    1
   165   156   155    1
   166   151   150    1
   167   150   149    1
   168   148   149    1
   169   148   145    1
   170   144   145    1
   171   146   145    1
   172   146   147    2
