@<TRIPOS>MOLECULE
tmp/1qf9A00.pdb
 168 159 0 0 0
SMALL
GASTEIGER

@<TRIPOS>ATOM
      1  N         35.7220   64.4900  -17.6200 N.3    15  PRO15      -0.2102
      2  CA        35.1700   65.2600  -16.5000 C.3    15  PRO15       0.1504
      3  C         34.6550   64.3570  -15.3800 C.2    15  PRO15       0.2576
      4  O         33.8090   63.4950  -15.6110 O.2    15  PRO15      -0.2718
      5  CB        34.0340   66.0660  -17.1400 C.3    15  PRO15       0.0282
      6  CG        34.2840   66.0050  -18.6080 C.3    15  PRO15       0.0208
      7  CD        34.9690   64.7160  -18.8660 C.3    15  PRO15       0.0893
      8  N         35.2150   64.5190  -14.1850 N.am   16  GLY16      -0.1943
      9  CA        34.7510   63.7620  -13.0330 C.3    16  GLY16       0.2014
     10  C         35.2220   62.3150  -12.9770 C.2    16  GLY16       0.2640
     11  O         34.6560   61.5050  -12.2350 O.2    16  GLY16      -0.2714
     12  N         36.2390   61.9760  -13.7690 N.am   17  SER17      -0.1935
     13  CA        36.7930   60.6230  -13.7680 C.3    17  SER17       0.2055
     14  C         37.6050   60.3230  -12.5080 C.2    17  SER17       0.2644
     15  O         37.9140   59.1650  -12.2300 O.2    17  SER17      -0.2714
     16  CB        37.6590   60.3850  -15.0200 C.3    17  SER17       0.2130
     17  OG        38.6900   61.3500  -15.1450 O.3    17  SER17      -0.2179
     18  N         37.9160   61.3630  -11.7390 N.am   18  GLY18      -0.1939
     19  CA        38.5100   61.1710  -10.4300 C.3    18  GLY18       0.2014
     20  C         39.9770   61.5480  -10.3670 C.2    18  GLY18       0.2639
     21  O         40.7160   61.0360   -9.5270 O.2    18  GLY18      -0.2714
     22  N         40.3880   62.4850  -11.2180 N.am   19  LYS19      -0.1963
     23  CA        41.7820   62.9060  -11.3010 C.3    19  LYS19       0.1728
     24  C         42.2310   63.6090  -10.0170 C.2    19  LYS19       0.2617
     25  O         43.2470   63.2390   -9.4240 O.2    19  LYS19      -0.2715
     26  CB        41.9850   63.8300  -12.5080 C.3    19  LYS19       0.0311
     27  CG        41.5180   63.2240  -13.8360 C.3    19  LYS19       0.0038
     28  CD        41.7670   64.1590  -15.0190 C.3    19  LYS19       0.0206
     29  CE        40.8130   65.3540  -15.0390 C.3    19  LYS19       0.1093
     30  NZ        39.3800   64.9700  -15.1040 N.3    19  LYS19      -0.1314
     31  N         41.4280   64.5660   -9.5560 N.am   20  GLY20      -0.1940
     32  CA        41.7410   65.2890   -8.3320 C.3    20  GLY20       0.2014
     33  C         41.7410   64.3990   -7.1050 C.2    20  GLY20       0.2640
     34  O         42.6760   64.4330   -6.3040 O.2    20  GLY20      -0.2714
     35  N         40.7610   63.5040   -7.0430 N.am   21  THR21      -0.1936
     36  CA        40.6370   62.5490   -5.9450 C.3    21  THR21       0.2028
     37  C         41.8770   61.6600   -5.8210 C.2    21  THR21       0.2642
     38  O         42.4340   61.5060   -4.7310 O.2    21  THR21      -0.2714
     39  CB        39.3820   61.6650   -6.1320 C.3    21  THR21       0.1808
     40  OG1       38.2200   62.5010   -6.1850 O.3    21  THR21      -0.2208
     41  CG2       39.2390   60.6720   -4.9830 C.3    21  THR21       0.0379
     42  N         42.3510   61.1350   -6.9490 N.am   22  GLN22      -0.1976
     43  CA        43.5040   60.2460   -6.9330 C.3    22  GLN22       0.1601
     44  C         44.8180   61.0070   -6.7610 C.2    22  GLN22       0.2287
     45  O         45.7490   60.5130   -6.1280 O.2    22  GLN22      -0.2864
     46  CB        43.5400   59.3950   -8.2070 C.3    22  GLN22       0.0394
     47  CG        42.4040   58.3780   -8.3050 C.3    22  GLN22       0.0908
     48  CD        42.3690   57.3970   -7.1370 C.2    22  GLN22       0.2608
     49  OE1       41.2980   56.9570   -6.7100 O.2    22  GLN22      -0.2717
     50  NE2       43.5390   57.0250   -6.6410 N.am   22  GLN22      -0.0878
     51  N         47.4650   68.1250  -13.5790 N.3    89  ASP89      -0.1239
     52  CA        46.1680   67.4620  -13.5530 C.3    89  ASP89       0.1674
     53  C         45.2220   68.2140  -14.5010 C.2    89  ASP89       0.2266
     54  O         45.0290   69.4220  -14.3740 O.2    89  ASP89      -0.2867
     55  CB        45.6630   67.4610  -12.0960 C.3    89  ASP89       0.1410
     56  CG        44.1680   67.1460  -11.9470 C.2    89  ASP89       0.3668
     57  OD1       43.4490   66.8820  -12.9320 O.co2  89  ASP89      -0.2456
     58  OD2       43.7160   67.1310  -10.7860 O.co2  89  ASP89      -0.2456
     59  N         44.7570   69.4550  -22.4010 N.3    93  ARG93      -0.1245
     60  CA        43.4180   69.0550  -22.8180 C.3    93  ARG93       0.1563
     61  C         43.1400   69.2970  -24.3070 C.2    93  ARG93       0.2260
     62  O         42.1430   68.8170  -24.8410 O.2    93  ARG93      -0.2867
     63  CB        42.3610   69.7580  -21.9550 C.3    93  ARG93       0.0307
     64  CG        41.8650   68.8900  -20.7920 C.3    93  ARG93       0.0489
     65  CD        40.8120   69.5870  -19.9340 C.3    93  ARG93       0.2205
     66  NE        40.1320   68.6390  -19.0490 N.pl3  93  ARG93      -0.0865
     67  CZ        40.0410   68.7650  -17.7260 C.cat  93  ARG93       0.5346
     68  NH1       40.8480   69.5920  -17.0710 N.pl3  93  ARG93       0.1354
     69  NH2       39.1520   68.0440  -17.0500 N.pl3  93  ARG93       0.1354
     70  N         28.5410   61.2430  -10.9230 N.3   127  ARG127     -0.1231
     71  CA        29.5260   61.8200  -10.0030 C.3   127  ARG127      0.1694
     72  C         29.4860   63.3460   -9.9950 C.2   127  ARG127      0.2591
     73  O         29.6130   63.9720   -8.9420 O.2   127  ARG127     -0.2718
     74  CB        30.9380   61.3660  -10.3750 C.3   127  ARG127      0.0321
     75  CG        31.2220   59.8980  -10.1190 C.3   127  ARG127      0.0489
     76  CD        32.6180   59.5560  -10.5850 C.3   127  ARG127      0.2205
     77  NE        32.9010   58.1290  -10.4960 N.pl3 127  ARG127     -0.0865
     78  CZ        34.0720   57.5850  -10.8070 C.cat 127  ARG127      0.5346
     79  NH1       35.0540   58.3430  -11.2800 N.pl3 127  ARG127      0.1354
     80  NH2       34.2660   56.2870  -10.6360 N.pl3 127  ARG127      0.1354
     81  N         29.3740   63.9370  -11.1830 N.am  128  LEU128     -0.1980
     82  CA        29.4540   65.3840  -11.3340 C.3   128  LEU128      0.1596
     83  C         28.1950   66.0900  -10.8270 C.2   128  LEU128      0.2287
     84  O         28.2830   67.1520  -10.2100 O.2   128  LEU128     -0.2864
     85  CB        29.7070   65.7450  -12.8000 C.3   128  LEU128      0.0297
     86  CG        31.1220   65.4710  -13.3200 C.3   128  LEU128      0.0022
     87  CD1       31.1660   65.6950  -14.8270 C.3   128  LEU128      0.0001
     88  CD2       32.1240   66.3700  -12.6100 C.3   128  LEU128      0.0001
     89  N         26.2760   64.7510   -8.4020 N.3   130  LYS130     -0.1231
     90  CA        26.4880   64.5950   -6.9660 C.3   130  LYS130      0.1693
     91  C         27.4580   65.6400   -6.4130 C.2   130  LYS130      0.2591
     92  O         27.1370   66.3400   -5.4520 O.2   130  LYS130     -0.2718
     93  CB        27.0070   63.1900   -6.6570 C.3   130  LYS130      0.0285
     94  CG        27.0650   62.8590   -5.1720 C.3   130  LYS130      0.0035
     95  CD        27.4140   61.3900   -4.9540 C.3   130  LYS130      0.0206
     96  CE        26.8400   60.8500   -3.6450 C.3   130  LYS130      0.1093
     97  NZ        26.1580   59.5240   -3.8180 N.3   130  LYS130     -0.1314
     98  N         28.6050   65.7970   -7.0680 N.am  131  ARG131     -0.1980
     99  CA        29.5770   66.8130   -6.6720 C.3   131  ARG131      0.1597
    100  C         28.9700   68.2130   -6.6830 C.2   131  ARG131      0.2287
    101  O         29.2570   69.0280   -5.8060 O.2   131  ARG131     -0.2864
    102  CB        30.7990   66.7770   -7.5930 C.3   131  ARG131      0.0334
    103  CG        31.9620   67.6240   -7.0980 C.3   131  ARG131      0.0492
    104  CD        33.1930   67.4360   -7.9670 C.3   131  ARG131      0.2205
    105  NE        33.1730   68.3220   -9.1270 N.pl3 131  ARG131     -0.0865
    106  CZ        33.9730   68.2050  -10.1840 C.cat 131  ARG131      0.5346
    107  NH1       35.0860   67.4820  -10.1180 N.pl3 131  ARG131      0.1354
    108  NH2       33.6790   68.8570  -11.3020 N.pl3 131  ARG131      0.1354
    109  N         30.8050   74.8270   -8.0270 N.3   137  ARG137     -0.1245
    110  CA        31.4470   75.0270   -9.3280 C.3   137  ARG137      0.1563
    111  C         30.4060   75.3840  -10.3820 C.2   137  ARG137      0.2260
    112  O         29.3230   74.7990  -10.4060 O.2   137  ARG137     -0.2867
    113  CB        32.1890   73.7570   -9.7530 C.3   137  ARG137      0.0307
    114  CG        33.5730   73.6070   -9.1440 C.3   137  ARG137      0.0489
    115  CD        34.2210   72.2970   -9.5600 C.3   137  ARG137      0.2205
    116  NE        34.4860   72.2470  -10.9980 N.pl3 137  ARG137     -0.0865
    117  CZ        35.4170   71.4840  -11.5660 C.cat 137  ARG137      0.5346
    118  NH1       36.2850   70.8170  -10.8190 N.pl3 137  ARG137      0.1354
    119  NH2       35.4890   71.3980  -12.8870 N.pl3 137  ARG137      0.1354
    120  N         31.2250   69.6720  -21.5400 N.3   148  ARG148     -0.1245
    121  CA        32.5340   69.1740  -21.1280 C.3   148  ARG148      0.1563
    122  C         32.8720   67.8420  -21.7900 C.2   148  ARG148      0.2260
    123  O         34.0100   67.6190  -22.1970 O.2   148  ARG148     -0.2867
    124  CB        32.5920   69.0220  -19.6050 C.3   148  ARG148      0.0307
    125  CG        32.3570   70.3130  -18.8520 C.3   148  ARG148      0.0489
    126  CD        32.5220   70.1090  -17.3680 C.3   148  ARG148      0.2205
    127  NE        33.8920   70.3860  -16.9650 N.pl3 148  ARG148     -0.0865
    128  CZ        34.6610   69.5450  -16.2840 C.cat 148  ARG148      0.5346
    129  NH1       34.1480   68.8500  -15.2720 N.pl3 148  ARG148      0.1354
    130  NH2       35.9560   69.4470  -16.5780 N.pl3 148  ARG148      0.1354
    131  N         38.6390   53.3230  -13.9420 N.3   174  ALA174     -0.1245
    132  CA        38.2730   54.1640  -12.8140 C.3   174  ALA174      0.1562
    133  C         36.8100   53.9660  -12.4290 C.2   174  ALA174      0.2260
    134  O         36.2910   54.6800  -11.5740 O.2   174  ALA174     -0.2867
    135  CB        38.5400   55.6270  -13.1470 C.3   174  ALA174      0.0290
    136  N         35.4860   51.8630  -10.4870 N.3   176  ARG176     -0.1231
    137  CA        35.4330   51.0570   -9.2720 C.3   176  ARG176      0.1694
    138  C         35.4540   51.9720   -8.0620 C.2   176  ARG176      0.2592
    139  O         35.6210   53.1850   -8.1920 O.2   176  ARG176     -0.2718
    140  CB        36.6320   50.1070   -9.1960 C.3   176  ARG176      0.0321
    141  CG        36.8210   49.2210  -10.4120 C.3   176  ARG176      0.0489
    142  CD        38.1870   48.5650  -10.4060 C.3   176  ARG176      0.2205
    143  NE        39.2170   49.4390  -10.9560 N.pl3 176  ARG176     -0.0865
    144  CZ        40.5130   49.3310  -10.6820 C.cat 176  ARG176      0.5346
    145  NH1       40.9380   48.4220   -9.8140 N.pl3 176  ARG176      0.1354
    146  NH2       41.3860   50.1340  -11.2770 N.pl3 176  ARG176      0.1354
    147  N         35.4040   51.3630   -6.8830 N.am  177  ASP177     -0.1960
    148  CA        35.5660   52.0890   -5.6310 C.3   177  ASP177      0.1840
    149  C         36.9490   52.7560   -5.5510 C.2   177  ASP177      0.2621
    150  O         37.9250   52.2600   -6.1210 O.2   177  ASP177     -0.2715
    151  CB        35.3110   51.1240   -4.4550 C.3   177  ASP177      0.1450
    152  CG        36.2960   51.2970   -3.3090 C.2   177  ASP177      0.3671
    153  OD1       36.0560   52.1630   -2.4380 O.co2 177  ASP177     -0.2456
    154  OD2       37.2900   50.5400   -3.2590 O.co2 177  ASP177     -0.2456
    155  N         37.0020   53.9080   -4.8870 N.am  178  VAL178     -0.1977
    156  CA        38.1500   54.8120   -4.9360 C.3   178  VAL178      0.1596
    157  C         39.4430   54.1740   -4.3940 C.2   178  VAL178      0.2287
    158  O         40.5390   54.4850   -4.8570 O.2   178  VAL178     -0.2864
    159  CB        37.8320   56.1280   -4.1610 C.3   178  VAL178      0.0276
    160  CG1       37.6220   55.8350   -2.6820 C.3   178  VAL178      0.0022
    161  CG2       38.9390   57.1370   -4.3410 C.3   178  VAL178      0.0022
    162  N         40.7120   51.7410   -7.1620 N.3   181  VAL181     -0.1245
    163  CA        41.4220   52.5870   -8.1140 C.3   181  VAL181      0.1561
    164  C         42.7940   52.9980   -7.5830 C.2   181  VAL181      0.2260
    165  O         43.7980   52.8460   -8.2830 O.2   181  VAL181     -0.2867
    166  CB        40.6000   53.8500   -8.4750 C.3   181  VAL181      0.0252
    167  CG1       41.3620   54.7100   -9.4780 C.3   181  VAL181      0.0019
    168  CG2       39.2510   53.4420   -9.0600 C.3   181  VAL181      0.0019
@<TRIPOS>BOND
     1    62    61    2
     2    61    60    1
     3    60    59    1
     4    60    63    1
     5   123   122    2
     6    63    64    1
     7   122   121    1
     8   120   121    1
     9   121   124    1
    10    64    65    1
    11    65    66    1
    12   124   125    1
    13    66    67    2
    14     7     6    1
    15     7     1    1
    16   125   126    1
    17     6     5    1
    18    67    68    1
    19    67    69    1
    20     1     2    1
    21   126   127    1
    22     5     2    1
    23   127   128    2
    24   130   128    1
    25     2     3    1
    26   128   129    1
    27     4     3    2
    28     3     8   am
    29    17    16    1
    30    30    29    1
    31    29    28    1
    32    16    13    1
    33    28    27    1
    34    87    86    1
    35    53    54    2
    36    53    52    1
    37     8     9    1
    38   131   132    1
    39    27    26    1
    40    12    13    1
    41    12    10   am
    42    13    14    1
    43    51    52    1
    44    52    55    1
    45    86    85    1
    46    86    88    1
    47   135   132    1
    48     9    10    1
    49    10    11    2
    50    57    56   ar
    51   119   117    1
    52   132   133    1
    53    85    82    1
    54    14    15    2
    55    14    18   am
    56    26    23    1
    57   133   134    2
    58    55    56    1
    59    56    58   ar
    60    18    19    1
    61   117   116    2
    62   117   118    1
    63    82    81    1
    64    82    83    1
    65   108   106    1
    66    23    22    1
    67    23    24    1
    68    79    78    1
    69   146   144    1
    70    22    20   am
    71    81    72   am
    72   116   115    1
    73   143   144    2
    74   143   142    1
    75    70    71    1
    76    83    84    2
    77    78    80    1
    78    78    77    2
    79   144   145    1
    80    76    77    1
    81    76    75    1
    82   136   137    1
    83    19    20    1
    84   141   142    1
    85   141   140    1
    86   112   111    2
    87   111   110    1
    88    74    75    1
    89    74    71    1
    90    20    21    2
    91   106   107    1
    92   106   105    2
    93    24    31   am
    94    24    25    2
    95    71    72    1
    96    72    73    2
    97   113   110    1
    98   113   114    1
    99   115   114    1
   100    31    32    1
   101   167   166    1
   102   110   109    1
   103   137   140    1
   104   137   138    1
   105   105   104    1
   106   168   166    1
   107   166   163    1
   108    89    90    1
   109    32    33    1
   110    47    46    1
   111    47    48    1
   112   165   164    2
   113    46    43    1
   114   139   138    2
   115   163   164    1
   116   163   162    1
   117   138   147   am
   118   104   103    1
   119   102   103    1
   120   102    99    1
   121    48    49    2
   122    48    50   am
   123    33    35   am
   124    33    34    2
   125    98    99    1
   126    98    91   am
   127    35    36    1
   128    90    93    1
   129    90    91    1
   130    42    43    1
   131    42    37   am
   132    43    44    1
   133   147   148    1
   134    44    45    2
   135   100    99    1
   136   100   101    2
   137    93    94    1
   138    91    92    2
   139    40    39    1
   140    39    36    1
   141    39    41    1
   142   150   149    2
   143    36    37    1
   144    37    38    2
   145   148   149    1
   146   148   151    1
   147   149   155   am
   148    94    95    1
   149    95    96    1
   150   156   155    1
   151   156   157    1
   152   156   159    1
   153   158   157    2
   154   151   152    1
   155   161   159    1
   156   159   160    1
   157    97    96    1
   158   152   154   ar
   159   152   153   ar
