@<TRIPOS>MOLECULE
tmp/1qfeB00.pdb
 137 125 0 0 0
SMALL
GASTEIGER

@<TRIPOS>ATOM
      1  N         20.7910   21.8040   11.1460 N.3    21  SER21      -0.1217
      2  CA        21.1690   22.4170    9.8840 C.3    21  SER21       0.1889
      3  C         22.5700   21.9790    9.4330 C.2    21  SER21       0.2288
      4  O         23.5060   21.9590   10.2400 O.2    21  SER21      -0.2866
      5  CB        21.1620   23.9340   10.0360 C.3    21  SER21       0.2089
      6  OG        19.8740   24.4300   10.3310 O.3    21  SER21      -0.2183
      7  N         18.0450   19.8200    7.7600 N.3    46  GLU46      -0.1245
      8  CA        17.8000   20.9900    6.9450 C.3    46  GLU46       0.1567
      9  C         19.1350   21.3680    6.3210 C.2    46  GLU46       0.2260
     10  O         20.1310   21.5560    7.0370 O.2    46  GLU46      -0.2867
     11  CB        17.3220   22.1760    7.7890 C.3    46  GLU46       0.0388
     12  CG        17.2870   23.4750    6.9940 C.3    46  GLU46       0.1160
     13  CD        17.1190   24.6960    7.8440 C.2    46  GLU46       0.3649
     14  OE1       17.9740   24.9520    8.7070 O.co2  46  GLU46      -0.2457
     15  OE2       16.1500   25.4310    7.6270 O.co2  46  GLU46      -0.2457
     16  N         21.1940   24.1610    4.6670 N.3    48  ARG48      -0.1245
     17  CA        21.1730   25.6000    4.5030 C.3    48  ARG48       0.1563
     18  C         21.9610   25.9290    3.2370 C.2    48  ARG48       0.2260
     19  O         23.1840   26.0940    3.2750 O.2    48  ARG48      -0.2867
     20  CB        21.7820   26.2770    5.7390 C.3    48  ARG48       0.0307
     21  CG        20.8120   26.3740    6.9290 C.3    48  ARG48       0.0489
     22  CD        19.6840   27.3690    6.6470 C.3    48  ARG48       0.2205
     23  NE        20.2050   28.7250    6.5420 N.pl3  48  ARG48      -0.0865
     24  CZ        20.5090   29.4900    7.5840 C.cat  48  ARG48       0.5346
     25  NH1       20.3290   29.0360    8.8120 N.pl3  48  ARG48       0.1354
     26  NH2       21.0510   30.6920    7.4020 N.pl3  48  ARG48       0.1354
     27  N         16.5740   24.5150    2.3240 N.3    80  THR80      -0.1218
     28  CA        16.4070   25.8980    2.7410 C.3    80  THR80       0.1862
     29  C         17.4290   26.9330    2.2550 C.2    80  THR80       0.2287
     30  O         18.6170   26.8840    2.6040 O.2    80  THR80      -0.2866
     31  CB        16.3980   26.0210    4.3090 C.3    80  THR80       0.1770
     32  OG1       15.3320   25.2540    4.8720 O.3    80  THR80      -0.2211
     33  CG2       16.2500   27.4690    4.7250 C.3    80  THR80       0.0375
     34  N         18.1580   30.5520    2.8990 N.3    82  ARG82      -0.1245
     35  CA        17.7800   31.6610    3.7570 C.3    82  ARG82       0.1563
     36  C         18.4010   32.9530    3.1990 C.2    82  ARG82       0.2260
     37  O         19.6270   33.0740    3.1010 O.2    82  ARG82      -0.2867
     38  CB        18.2500   31.3800    5.1980 C.3    82  ARG82       0.0307
     39  CG        17.9190   32.4620    6.2190 C.3    82  ARG82       0.0489
     40  CD        16.4210   32.5790    6.4350 C.3    82  ARG82       0.2205
     41  NE        15.8600   31.3130    6.8880 N.pl3  82  ARG82      -0.0865
     42  CZ        14.8870   30.6630    6.2700 C.cat  82  ARG82       0.5346
     43  NH1       14.3520   31.1490    5.1670 N.pl3  82  ARG82       0.1354
     44  NH2       14.4620   29.5020    6.7440 N.pl3  82  ARG82       0.1354
     45  N         11.3890   35.5560    9.5740 N.3   143  HIS143     -0.1241
     46  CA        12.3100   35.7530   10.6670 C.3   143  HIS143      0.1621
     47  C         12.5400   37.2390   10.8910 C.2   143  HIS143      0.2264
     48  O         12.5940   38.0240    9.9340 O.2   143  HIS143     -0.2867
     49  CB        13.6520   35.0810   10.3480 C.3   143  HIS143      0.0745
     50  CG        13.5240   33.6950    9.7930 C.ar  143  HIS143      0.0817
     51  ND1       13.0190   33.4400    8.5340 N.ar  143  HIS143     -0.2268
     52  CD2       13.7900   32.4870   10.3360 C.ar  143  HIS143      0.1154
     53  CE1       12.9690   32.1330    8.3370 C.ar  143  HIS143      0.1986
     54  NE2       13.4320   31.5350    9.4150 N.ar  143  HIS143     -0.2212
     55  N         15.2360   39.3280   12.9720 N.3   145  PHE145     -0.1241
     56  CA        16.4580   39.2710   13.7680 C.3   145  PHE145      0.1605
     57  C         16.7030   40.5270   14.6100 C.2   145  PHE145      0.2264
     58  O         17.7320   40.6480   15.2660 O.2   145  PHE145     -0.2867
     59  CB        17.6720   39.0050   12.8620 C.3   145  PHE145      0.0534
     60  CG        17.9210   37.5550   12.5940 C.ar  145  PHE145     -0.0203
     61  CD1       17.0650   36.8290   11.7750 C.ar  145  PHE145     -0.0042
     62  CD2       18.9950   36.9040   13.1830 C.ar  145  PHE145     -0.0042
     63  CE1       17.2700   35.4800   11.5460 C.ar  145  PHE145     -0.0003
     64  CE2       19.2070   35.5520   12.9580 C.ar  145  PHE145     -0.0003
     65  CZ        18.3420   34.8340   12.1360 C.ar  145  PHE145     -0.0000
     66  N          6.3640   28.7220   10.1290 N.3   170  LYS170     -0.1245
     67  CA         7.5170   28.8270   11.0160 C.3   170  LYS170      0.1561
     68  C          7.8530   30.2970   11.2470 C.2   170  LYS170      0.2260
     69  O          7.9180   31.0760   10.3020 O.2   170  LYS170     -0.2867
     70  CB         8.7280   28.1050   10.4010 C.3   170  LYS170      0.0271
     71  CG        10.0570   28.4210   11.0780 C.3   170  LYS170      0.0035
     72  CD        11.2580   28.0190   10.2350 C.3   170  LYS170      0.0206
     73  CE        12.5750   28.3390   10.9220 C.3   170  LYS170      0.1093
     74  NZ        13.5930   28.7410    9.9530 N.3   170  LYS170     -0.1314
     75  N         10.4620   32.9670   13.6420 N.3   172  ALA172     -0.1245
     76  CA        11.5640   33.1330   14.5760 C.3   172  ALA172      0.1562
     77  C         11.6730   34.6240   14.8500 C.2   172  ALA172      0.2260
     78  O         11.5940   35.4250   13.9350 O.2   172  ALA172     -0.2867
     79  CB        12.8700   32.6000   13.9720 C.3   172  ALA172      0.0290
     80  N          9.9390   30.1680   17.5570 N.3   203  MET203     -0.1245
     81  CA        11.0950   30.2520   18.4290 C.3   203  MET203      0.1570
     82  C         11.4880   31.6910   18.6690 C.2   203  MET203      0.2261
     83  O         11.1930   32.5690   17.8690 O.2   203  MET203     -0.2867
     84  CB        12.2930   29.4400   17.9030 C.3   203  MET203      0.0387
     85  CG        12.8430   29.8680   16.5400 C.3   203  MET203      0.0595
     86  SD        12.0680   29.0010   15.1550 S.3   203  MET203     -0.1393
     87  CE        12.8930   27.4460   15.2740 C.3   203  MET203      0.0692
     88  N         14.8040   33.7250   19.5660 N.3   205  MET205     -0.1245
     89  CA        16.2360   33.4560   19.4330 C.3   205  MET205      0.1570
     90  C         17.0750   33.9730   20.5870 C.2   205  MET205      0.2261
     91  O         16.5620   34.6020   21.5040 O.2   205  MET205     -0.2867
     92  CB        16.7490   34.0510   18.1110 C.3   205  MET205      0.0387
     93  CG        16.0670   33.5130   16.8600 C.3   205  MET205      0.0595
     94  SD        16.7520   34.2770   15.3660 S.3   205  MET205     -0.1393
     95  CE        15.6750   35.5760   15.1270 C.3   205  MET205      0.0692
     96  N         12.7920   27.0590   22.8110 N.3   213  ARG213     -0.1245
     97  CA        13.2970   25.9390   22.0260 C.3   213  ARG213      0.1563
     98  C         13.1470   24.6170   22.7920 C.2   213  ARG213      0.2260
     99  O         13.2630   23.5410   22.2070 O.2   213  ARG213     -0.2867
    100  CB        14.7750   26.1710   21.6680 C.3   213  ARG213      0.0307
    101  CG        15.0360   27.4220   20.8310 C.3   213  ARG213      0.0489
    102  CD        16.5170   27.5240   20.4530 C.3   213  ARG213      0.2205
    103  NE        16.8450   28.6990   19.6270 N.pl3 213  ARG213     -0.0865
    104  CZ        16.6540   28.7820   18.3050 C.cat 213  ARG213      0.5346
    105  NH1       16.1240   27.7700   17.6330 N.pl3 213  ARG213      0.1354
    106  NH2       17.0320   29.8640   17.6390 N.pl3 213  ARG213      0.1354
    107  N         15.0640   23.4120   16.7150 N.3   225  PHE225     -0.1241
    108  CA        16.3900   23.2720   16.1270 C.3   225  PHE225      0.1605
    109  C         17.4830   23.1360   17.1630 C.2   225  PHE225      0.2264
    110  O         17.5060   23.8700   18.1450 O.2   225  PHE225     -0.2867
    111  CB        16.7250   24.4880   15.2680 C.3   225  PHE225      0.0534
    112  CG        16.0990   24.4780   13.9080 C.ar  225  PHE225     -0.0203
    113  CD1       14.7750   24.8520   13.7300 C.ar  225  PHE225     -0.0042
    114  CD2       16.8470   24.1300   12.7870 C.ar  225  PHE225     -0.0042
    115  CE1       14.2060   24.8850   12.4530 C.ar  225  PHE225     -0.0003
    116  CE2       16.2830   24.1570   11.5090 C.ar  225  PHE225     -0.0003
    117  CZ        14.9630   24.5350   11.3400 C.ar  225  PHE225     -0.0000
    118  N         22.9320   27.2190   13.4110 N.3   232  SER232     -0.1202
    119  CA        22.4810   27.8770   12.2010 C.3   232  SER232      0.2020
    120  C         21.7060   29.1480   12.5520 C.2   232  SER232      0.2618
    121  O         21.3660   29.9250   11.6710 O.2   232  SER232     -0.2717
    122  CB        21.6580   26.9310   11.3240 C.3   232  SER232      0.2103
    123  OG        20.6690   26.2360   12.0500 O.3   232  SER232     -0.2182
    124  N         21.4530   29.3630   13.8480 N.am  233  ALA233     -0.1979
    125  CA        20.7550   30.5600   14.3410 C.3   233  ALA233      0.1597
    126  C         21.0760   30.7350   15.8230 C.2   233  ALA233      0.2287
    127  O         21.3360   29.7530   16.5260 O.2   233  ALA233     -0.2864
    128  CB        19.2670   30.4670   14.1190 C.3   233  ALA233      0.0319
    129  N         20.4760   28.1660   19.6250 N.3   236  GLN236     -0.1245
    130  CA        20.4800   26.7120   19.5250 C.3   236  GLN236      0.1566
    131  C         21.5060   26.1080   20.4640 C.2   236  GLN236      0.2260
    132  O         22.6050   26.6370   20.6300 O.2   236  GLN236     -0.2867
    133  CB        20.7880   26.2500   18.1030 C.3   236  GLN236      0.0367
    134  CG        19.7440   26.6260   17.0590 C.3   236  GLN236      0.0905
    135  CD        20.2010   26.3190   15.6210 C.2   236  GLN236      0.2608
    136  OE1       21.3040   25.8110   15.4020 O.2   236  GLN236     -0.2717
    137  NE2       19.3490   26.6280   14.6450 N.am  236  GLN236     -0.0878
@<TRIPOS>BOND
     1    29    30    2
     2    29    28    1
     3    27    28    1
     4    28    31    1
     5    34    35    1
     6    37    36    2
     7    36    35    1
     8    18    19    2
     9    18    17    1
    10    35    38    1
    11    31    33    1
    12    31    32    1
    13    17    16    1
    14    17    20    1
    15    43    42    1
    16    38    39    1
    17    20    21    1
    18    39    40    1
    19    42    44    1
    20    42    41    2
    21     9     8    1
    22     9    10    2
    23    40    41    1
    24    23    22    1
    25    23    24    2
    26    22    21    1
    27     8     7    1
    28     8    11    1
    29    12    11    1
    30    12    13    1
    31    26    24    1
    32    24    25    1
    33    15    13   ar
    34    13    14   ar
    35    53    51   ar
    36    53    54   ar
    37    51    50   ar
    38    54    52   ar
    39     3     2    1
    40     3     4    2
    41    45    46    1
    42    50    52   ar
    43    50    49    1
    44     2     5    1
    45     2     1    1
    46    48    47    2
    47    74    73    1
    48     5     6    1
    49    66    67    1
    50    72    73    1
    51    72    71    1
    52    69    68    2
    53    49    46    1
    54    70    67    1
    55    70    71    1
    56    46    47    1
    57    67    68    1
    58   122   123    1
    59   122   119    1
    60   117   116   ar
    61   117   115   ar
    62   116   114   ar
    63    63    61   ar
    64    63    65   ar
    65   121   120    2
    66    61    60   ar
    67    65    64   ar
    68   119   120    1
    69   119   118    1
    70   115   113   ar
    71   120   124   am
    72    60    59    1
    73    60    62   ar
    74   114   112   ar
    75    59    56    1
    76    64    62   ar
    77    55    56    1
    78    75    76    1
    79   113   112   ar
    80    56    57    1
    81   124   125    1
    82   112   111    1
    83    78    77    2
    84    79    76    1
    85   128   125    1
    86   125   126    1
    87    76    77    1
    88    57    58    2
    89   137   135   am
    90    95    94    1
    91    86    87    1
    92    86    85    1
    93   111   108    1
    94    94    93    1
    95   136   135    2
    96   135   134    1
    97   126   127    2
    98   108   107    1
    99   108   109    1
   100    85    84    1
   101    93    92    1
   102   134   133    1
   103   109   110    2
   104    80    81    1
   105   105   104    1
   106   106   104    1
   107    83    82    2
   108    84    81    1
   109   133   130    1
   110    92    89    1
   111   104   103    2
   112    81    82    1
   113    89    88    1
   114    89    90    1
   115   130   129    1
   116   130   131    1
   117   103   102    1
   118   102   101    1
   119   131   132    2
   120    90    91    2
   121   101   100    1
   122   100    97    1
   123    97    98    1
   124    97    96    1
   125    99    98    2
