@<TRIPOS>MOLECULE
tmp/1qfgA06.pdb
 75 72 0 0 0
SMALL
GASTEIGER

@<TRIPOS>ATOM
      1  N         86.4780  102.5910   44.5890 N.3   580  SER580     -0.1202
      2  CA        86.4740  102.6210   46.0320 C.3   580  SER580      0.2020
      3  C         87.7610  102.1420   46.6180 C.2   580  SER580      0.2618
      4  O         88.6720  101.6490   45.9010 O.2   580  SER580     -0.2717
      5  CB        85.3480  101.7530   46.5450 C.3   580  SER580      0.2103
      6  OG        85.6170  100.3400   46.3710 O.3   580  SER580     -0.2182
      7  N         87.8370  102.2320   47.9500 N.am  581  TYR581     -0.1975
      8  CA        89.0460  101.7520   48.6090 C.3   581  TYR581      0.1639
      9  C         88.6300  101.2830   50.0080 C.2   581  TYR581      0.2290
     10  O         87.8070  101.9590   50.7130 O.2   581  TYR581     -0.2864
     11  CB        90.1270  102.8680   48.7350 C.3   581  TYR581      0.0560
     12  CG        91.2940  102.4570   49.6620 C.ar  581  TYR581     -0.0198
     13  CD1       92.2920  101.6360   49.2070 C.ar  581  TYR581     -0.0009
     14  CD2       91.2980  102.8080   51.0450 C.ar  581  TYR581     -0.0009
     15  CE1       93.2560  101.1400   50.0840 C.ar  581  TYR581      0.0417
     16  CE2       92.2440  102.3350   51.9330 C.ar  581  TYR581      0.0417
     17  CZ        93.2220  101.4750   51.4550 C.ar  581  TYR581      0.1957
     18  OH        94.0810  100.7610   52.3340 O.3   581  TYR581     -0.2866
     19  N         93.9810   95.3390   52.5250 N.3   605  HIS605     -0.1241
     20  CA        93.7250   96.3710   51.5770 C.3   605  HIS605      0.1621
     21  C         93.0190   95.8740   50.3630 C.2   605  HIS605      0.2264
     22  O         93.4250   94.8180   49.8120 O.2   605  HIS605     -0.2867
     23  CB        95.0470   96.9560   51.0580 C.3   605  HIS605      0.0745
     24  CG        95.8980   97.5740   52.1140 C.ar  605  HIS605      0.0817
     25  ND1       95.5380   98.7360   52.7610 N.ar  605  HIS605     -0.2268
     26  CD2       97.0430   97.1390   52.7040 C.ar  605  HIS605      0.1154
     27  CE1       96.4170   98.9880   53.7150 C.ar  605  HIS605      0.1986
     28  NE2       97.3330   98.0360   53.6990 N.ar  605  HIS605     -0.2212
     29  N         90.9290   97.4670   46.6110 N.3   607  ALA607     -0.1231
     30  CA        90.4130   98.5850   45.8930 C.3   607  ALA607      0.1694
     31  C         90.0230   98.2960   44.4560 C.2   607  ALA607      0.2593
     32  O         90.3930   97.3190   43.7940 O.2   607  ALA607     -0.2718
     33  CB        91.4010   99.7650   45.9470 C.3   607  ALA607      0.0304
     34  N         89.2830   99.2320   43.9450 N.am  608  SER608     -0.1938
     35  CA        88.7890   99.0850   42.6210 C.3   608  SER608      0.2055
     36  C         88.4850  100.5020   42.1180 C.2   608  SER608      0.2642
     37  O         88.1520  101.4640   42.9280 O.2   608  SER608     -0.2714
     38  CB        87.4750   98.2550   42.6440 C.3   608  SER608      0.2130
     39  OG        86.4130   99.0060   43.2460 O.3   608  SER608     -0.2179
     40  N         88.5870  100.6010   40.7940 N.am  609  LEU609     -0.1977
     41  CA        88.2730  101.8300   40.1440 C.3   609  LEU609      0.1596
     42  C         87.8570  101.5560   38.6740 C.2   609  LEU609      0.2287
     43  O         88.4670  100.7160   37.9630 O.2   609  LEU609     -0.2864
     44  CB        89.4500  102.7910   40.2470 C.3   609  LEU609      0.0297
     45  CG        88.9290  104.0480   39.5360 C.3   609  LEU609      0.0022
     46  CD1       88.7350  105.1880   40.5490 C.3   609  LEU609      0.0001
     47  CD2       89.8550  104.4000   38.3540 C.3   609  LEU609      0.0001
     48  N         91.6250   95.6600   42.5400 N.3   631  TYR631     -0.1241
     49  CA        92.7500   95.3060   43.3680 C.3   631  TYR631      0.1605
     50  C         92.3170   94.5170   44.5890 C.2   631  TYR631      0.2264
     51  O         91.4750   94.9810   45.4290 O.2   631  TYR631     -0.2867
     52  CB        93.5550   96.5740   43.8500 C.3   631  TYR631      0.0534
     53  CG        94.7450   96.2280   44.7370 C.ar  631  TYR631     -0.0201
     54  CD1       95.7800   95.4400   44.2330 C.ar  631  TYR631     -0.0009
     55  CD2       94.7940   96.6080   46.1110 C.ar  631  TYR631     -0.0009
     56  CE1       96.8670   95.0080   45.0480 C.ar  631  TYR631      0.0417
     57  CE2       95.8620   96.1910   46.9560 C.ar  631  TYR631      0.0417
     58  CZ        96.8970   95.3840   46.3920 C.ar  631  TYR631      0.1957
     59  OH        97.9710   94.9380   47.1120 O.3   631  TYR631     -0.2866
     60  N         94.1810   92.8850   47.8230 N.3   633  GLY633     -0.1210
     61  CA        95.3580   92.7690   48.6790 C.3   633  GLY633      0.1956
     62  C         95.6770   91.3450   49.1000 C.2   633  GLY633      0.2612
     63  O         94.9350   90.3560   48.7970 O.2   633  GLY633     -0.2717
     64  N         96.7960   91.1860   49.8000 N.am  634  SER634     -0.1952
     65  CA        97.2230   89.8170   50.2000 C.3   634  SER634      0.1924
     66  C         96.3000   89.4240   51.3550 C.2   634  SER634      0.2314
     67  O         95.6960   90.3260   51.9670 O.2   634  SER634     -0.2863
     68  CB        98.7320   89.7650   50.6340 C.3   634  SER634      0.2116
     69  OG        99.0230   90.2930   51.9620 O.3   634  SER634     -0.2180
     70  N         98.3590   89.2930   46.7420 N.3   647  SER647     -0.1217
     71  CA        97.6370   90.3820   46.1200 C.3   647  SER647      0.1889
     72  C         97.5050   90.0490   44.6260 C.2   647  SER647      0.2288
     73  O         98.1840   89.1680   44.1030 O.2   647  SER647     -0.2866
     74  CB        98.4180   91.6810   46.2850 C.3   647  SER647      0.2089
     75  OG        99.4550   91.7660   45.3150 O.3   647  SER647     -0.2183
@<TRIPOS>BOND
     1    43    42    2
     2    47    45    1
     3    42    41    1
     4    45    44    1
     5    45    46    1
     6    41    44    1
     7    41    40    1
     8    40    36   am
     9    36    35    1
    10    36    37    2
    11    48    49    1
    12    35    38    1
    13    35    34    1
    14    38    39    1
    15    49    52    1
    16    49    50    1
    17    32    31    2
    18    52    53    1
    19    34    31   am
    20    73    72    2
    21    54    53   ar
    22    54    56   ar
    23    31    30    1
    24    50    51    2
    25     1     2    1
    26    72    71    1
    27    53    55   ar
    28    56    58   ar
    29    75    74    1
    30    30    33    1
    31    30    29    1
    32     4     3    2
    33     2     5    1
    34     2     3    1
    35    55    57   ar
    36    71    74    1
    37    71    70    1
    38     6     5    1
    39    58    57   ar
    40    58    59    1
    41     3     7   am
    42    60    61    1
    43     7     8    1
    44     8    11    1
    45     8     9    1
    46    61    62    1
    47    11    12    1
    48    63    62    2
    49    62    64   am
    50    13    12   ar
    51    13    15   ar
    52    12    14   ar
    53    64    65    1
    54    22    21    2
    55     9    10    2
    56    15    17   ar
    57    65    68    1
    58    65    66    1
    59    21    20    1
    60    68    69    1
    61    14    16   ar
    62    23    20    1
    63    23    24    1
    64    66    67    2
    65    17    16   ar
    66    17    18    1
    67    20    19    1
    68    24    26   ar
    69    24    25   ar
    70    26    28   ar
    71    25    27   ar
    72    28    27   ar
