@<TRIPOS>MOLECULE
tmp/1qfmA00.pdb
 106 103 0 0 0
SMALL
GASTEIGER

@<TRIPOS>ATOM
      1  N         27.0020   36.2640   82.3520 N.3   469  TYR469     -0.1241
      2  CA        28.4620   36.2140   82.3100 C.3   469  TYR469      0.1605
      3  C         28.7990   34.7530   81.9470 C.2   469  TYR469      0.2264
      4  O         29.0780   34.4580   80.7860 O.2   469  TYR469     -0.2867
      5  CB        29.0520   36.6460   83.6610 C.3   469  TYR469      0.0534
      6  CG        30.5600   36.6950   83.7040 C.ar  469  TYR469     -0.0201
      7  CD1       31.2680   37.7210   83.0710 C.ar  469  TYR469     -0.0009
      8  CD2       31.2820   35.7230   84.3890 C.ar  469  TYR469     -0.0009
      9  CE1       32.6590   37.7670   83.1190 C.ar  469  TYR469      0.0417
     10  CE2       32.6610   35.7590   84.4440 C.ar  469  TYR469      0.0417
     11  CZ        33.3460   36.7810   83.8120 C.ar  469  TYR469      0.1957
     12  OH        34.7180   36.7990   83.8850 O.3   469  TYR469     -0.2866
     13  N         34.4600   31.3130   84.9100 N.3   472  PHE472     -0.1241
     14  CA        35.4390   31.5790   85.9400 C.3   472  PHE472      0.1605
     15  C         34.9820   31.4910   87.3840 C.2   472  PHE472      0.2264
     16  O         35.5490   32.1480   88.2540 O.2   472  PHE472     -0.2867
     17  CB        36.0890   32.9320   85.6400 C.3   472  PHE472      0.0534
     18  CG        36.7610   32.9760   84.2950 C.ar  472  PHE472     -0.0203
     19  CD1       36.1440   33.5670   83.1960 C.ar  472  PHE472     -0.0042
     20  CD2       38.0000   32.3720   84.1180 C.ar  472  PHE472     -0.0042
     21  CE1       36.7520   33.5570   81.9410 C.ar  472  PHE472     -0.0003
     22  CE2       38.6190   32.3570   82.8710 C.ar  472  PHE472     -0.0003
     23  CZ        37.9930   32.9460   81.7830 C.ar  472  PHE472     -0.0000
     24  N         32.5580   32.7210   88.7460 N.3   474  ILE474     -0.1245
     25  CA        32.0000   33.9810   89.2270 C.3   474  ILE474      0.1561
     26  C         30.4770   33.8670   89.3550 C.2   474  ILE474      0.2260
     27  O         29.8060   33.4080   88.4470 O.2   474  ILE474     -0.2867
     28  CB        32.3790   35.1630   88.2880 C.3   474  ILE474      0.0252
     29  CG1       33.9020   35.3320   88.2620 C.3   474  ILE474      0.0019
     30  CG2       31.7030   36.4630   88.7490 C.3   474  ILE474      0.0019
     31  CD1       34.4020   36.5370   87.5080 C.3   474  ILE474      0.0001
     32  N         33.3050   41.1910   78.9760 N.3   550  SER550     -0.1202
     33  CA        34.4830   40.3340   79.0840 C.3   550  SER550      0.2020
     34  C         34.0690   38.9220   78.6650 C.2   550  SER550      0.2618
     35  O         33.7170   38.7040   77.5030 O.2   550  SER550     -0.2717
     36  CB        35.0410   40.3900   80.5090 C.3   550  SER550      0.2103
     37  OG        36.3990   39.9770   80.5530 O.3   550  SER550     -0.2182
     38  N         34.1090   37.9630   79.5810 N.am  551  ASN551     -0.1974
     39  CA        33.6600   36.6060   79.2690 C.3   551  ASN551      0.1688
     40  C         32.1760   36.6940   78.8830 C.2   551  ASN551      0.2292
     41  O         31.6830   35.8990   78.0990 O.2   551  ASN551     -0.2864
     42  CB        33.8740   35.6910   80.4880 C.3   551  ASN551      0.1181
     43  CG        33.1640   34.3370   80.3630 C.2   551  ASN551      0.2629
     44  OD1       32.2470   34.0520   81.0990 O.2   551  ASN551     -0.2716
     45  ND2       33.5910   33.5210   79.4410 N.am  551  ASN551     -0.0877
     46  N         35.8930   38.9380   74.7020 N.3   576  VAL576     -0.1245
     47  CA        36.9230   38.0880   74.1120 C.3   576  VAL576      0.1561
     48  C         36.2530   37.5050   72.8570 C.2   576  VAL576      0.2260
     49  O         35.3060   36.7280   72.9520 O.2   576  VAL576     -0.2867
     50  CB        37.3210   36.9570   75.0720 C.3   576  VAL576      0.0252
     51  CG1       38.4590   36.1550   74.4760 C.3   576  VAL576      0.0019
     52  CG2       37.7200   37.5320   76.4190 C.3   576  VAL576      0.0019
     53  N         43.3600   32.4130   80.8650 N.3   591  TRP591     -0.1241
     54  CA        41.9950   31.9630   80.6090 C.3   591  TRP591      0.1605
     55  C         41.8660   30.5620   80.0230 C.2   591  TRP591      0.2264
     56  O         40.7510   30.0430   79.8960 O.2   591  TRP591     -0.2867
     57  CB        41.2540   32.9640   79.7010 C.3   591  TRP591      0.0550
     58  CG        41.4220   34.4140   80.1030 C.ar  591  TRP591      0.0003
     59  CD1       41.6530   34.9000   81.3690 C.ar  591  TRP591      0.0946
     60  CD2       41.4840   35.5430   79.2250 C.ar  591  TRP591      0.0152
     61  NE1       41.8730   36.2610   81.3130 N.ar  591  TRP591     -0.2442
     62  CE2       41.7820   36.6790   80.0140 C.ar  591  TRP591      0.0810
     63  CE3       41.3350   35.7030   77.8410 C.ar  591  TRP591      0.0012
     64  CZ2       41.9270   37.9520   79.4700 C.ar  591  TRP591      0.0191
     65  CZ3       41.4810   36.9770   77.3010 C.ar  591  TRP591      0.0001
     66  CH2       41.7780   38.0830   78.1180 C.ar  591  TRP591      0.0015
     67  N         38.6500   28.0490   78.8630 N.3   595  TYR595     -0.1241
     68  CA        38.4290   27.8710   77.4290 C.3   595  TYR595      0.1605
     69  C         39.1620   26.7740   76.6830 C.2   595  TYR595      0.2264
     70  O         38.6420   26.2380   75.7080 O.2   595  TYR595     -0.2867
     71  CB        38.7640   29.1730   76.6930 C.3   595  TYR595      0.0534
     72  CG        38.0990   30.4200   77.2240 C.ar  595  TYR595     -0.0201
     73  CD1       38.8150   31.6070   77.3230 C.ar  595  TYR595     -0.0009
     74  CD2       36.7490   30.4270   77.5670 C.ar  595  TYR595     -0.0009
     75  CE1       38.2060   32.7720   77.7400 C.ar  595  TYR595      0.0417
     76  CE2       36.1180   31.5990   77.9940 C.ar  595  TYR595      0.0417
     77  CZ        36.8770   32.7640   78.0660 C.ar  595  TYR595      0.1957
     78  OH        36.3590   33.9710   78.4390 O.3   595  TYR595     -0.2866
     79  N         43.3470   44.1190   79.7750 N.3   638  ARG638     -0.1231
     80  CA        42.8500   42.8440   80.3080 C.3   638  ARG638      0.1694
     81  C         42.4150   42.0400   79.0840 C.2   638  ARG638      0.2591
     82  O         42.8940   40.9400   78.8630 O.2   638  ARG638     -0.2718
     83  CB        41.6690   43.0370   81.2650 C.3   638  ARG638      0.0321
     84  CG        41.2160   41.7310   81.9270 C.3   638  ARG638      0.0489
     85  CD        42.2370   41.2480   82.9570 C.3   638  ARG638      0.2205
     86  NE        42.3730   42.2220   84.0360 N.pl3 638  ARG638     -0.0865
     87  CZ        41.5030   42.3850   85.0260 C.cat 638  ARG638      0.5346
     88  NH1       40.4240   41.6270   85.1030 N.pl3 638  ARG638      0.1354
     89  NH2       41.6760   43.3620   85.9090 N.pl3 638  ARG638      0.1354
     90  N         41.5050   42.6050   78.2970 N.am  639  VAL639     -0.1980
     91  CA        41.0540   41.9750   77.0540 C.3   639  VAL639      0.1595
     92  C         41.4260   42.9830   75.9760 C.2   639  VAL639      0.2287
     93  O         40.7110   43.9570   75.7390 O.2   639  VAL639     -0.2864
     94  CB        39.5220   41.7060   77.0270 C.3   639  VAL639      0.0276
     95  CG1       39.1150   41.1290   75.6790 C.3   639  VAL639      0.0022
     96  CG2       39.1390   40.7240   78.1280 C.3   639  VAL639      0.0022
     97  N         39.6110   48.0490   80.9570 N.3   675  HIS675     -0.1241
     98  CA        38.6150   47.0000   81.1140 C.3   675  HIS675      0.1621
     99  C         37.3630   47.4220   81.8700 C.2   675  HIS675      0.2264
    100  O         36.2900   46.8490   81.6600 O.2   675  HIS675     -0.2867
    101  CB        39.2460   45.7770   81.7570 C.3   675  HIS675      0.0745
    102  CG        38.5340   44.5010   81.4530 C.ar  675  HIS675      0.0817
    103  ND1       38.2630   44.0740   80.1630 N.ar  675  HIS675     -0.2268
    104  CD2       38.0670   43.5270   82.2720 C.ar  675  HIS675      0.1154
    105  CE1       37.6650   42.9070   80.2040 C.ar  675  HIS675      0.1986
    106  NE2       37.5350   42.5540   81.4770 N.ar  675  HIS675     -0.2212
@<TRIPOS>BOND
     1    48    49    2
     2    48    47    1
     3    47    46    1
     4    47    50    1
     5    51    50    1
     6    50    52    1
     7    95    94    1
     8    70    69    2
     9    93    92    2
    10    92    91    1
    11    69    68    1
    12    71    72    1
    13    71    68    1
    14    94    91    1
    15    94    96    1
    16    91    90    1
    17    72    73   ar
    18    72    74   ar
    19    65    63   ar
    20    65    66   ar
    21    73    75   ar
    22    68    67    1
    23    35    34    2
    24    74    76   ar
    25    75    77   ar
    26    63    60   ar
    27    76    77   ar
    28    77    78    1
    29    41    40    2
    30    66    64   ar
    31    90    81   am
    32    34    33    1
    33    34    38   am
    34    82    81    2
    35    40    39    1
    36    32    33    1
    37    33    36    1
    38    81    80    1
    39    60    62   ar
    40    60    58   ar
    41    39    38    1
    42    39    42    1
    43    45    43   am
    44    64    62   ar
    45    57    58    1
    46    57    54    1
    47    79    80    1
    48    56    55    2
    49    62    61   ar
    50    55    54    1
    51    58    59   ar
    52   103   105   ar
    53   103   102   ar
    54   105   106   ar
    55    80    83    1
    56    43    42    1
    57    43    44    2
    58    36    37    1
    59    54    53    1
    60     4     3    2
    61    97    98    1
    62    98   101    1
    63    98    99    1
    64    83    84    1
    65    61    59   ar
    66   102   101    1
    67   102   104   ar
    68   106   104   ar
    69   100    99    2
    70    23    21   ar
    71    23    22   ar
    72    84    85    1
    73    21    19   ar
    74     3     2    1
    75     2     1    1
    76     2     5    1
    77    22    20   ar
    78    85    86    1
    79     7     9   ar
    80     7     6   ar
    81     9    11   ar
    82    19    18   ar
    83     5     6    1
    84     6     8   ar
    85    11    12    1
    86    11    10   ar
    87    86    87    2
    88    20    18   ar
    89    18    17    1
    90     8    10   ar
    91    13    14    1
    92    87    88    1
    93    87    89    1
    94    17    14    1
    95    14    15    1
    96    15    16    2
    97    31    29    1
    98    29    28    1
    99    28    30    1
   100    28    25    1
   101    27    26    2
   102    24    25    1
   103    25    26    1
