@<TRIPOS>MOLECULE
tmp/1qfoB00.pdb
 102 101 0 0 0
SMALL
GASTEIGER

@<TRIPOS>ATOM
      1  N          2.8180   45.9460   27.6940 N.3     2  TRP2       -0.1241
      2  CA         2.3600   46.5200   26.4310 C.3     2  TRP2        0.1605
      3  C          0.9210   47.0030   26.3900 C.2     2  TRP2        0.2264
      4  O          0.0050   46.3210   26.8460 O.2     2  TRP2       -0.2867
      5  CB         2.5440   45.5100   25.2950 C.3     2  TRP2        0.0550
      6  CG         3.9620   45.1520   25.0060 C.ar    2  TRP2        0.0003
      7  CD1        4.6650   44.0900   25.5090 C.ar    2  TRP2        0.0946
      8  CD2        4.8530   45.8460   24.1310 C.ar    2  TRP2        0.0152
      9  NE1        5.9390   44.0810   24.9940 N.ar    2  TRP2       -0.2442
     10  CE2        6.0830   45.1470   24.1460 C.ar    2  TRP2        0.0810
     11  CE3        4.7350   46.9920   23.3340 C.ar    2  TRP2        0.0012
     12  CZ2        7.1850   45.5570   23.3930 C.ar    2  TRP2        0.0191
     13  CZ3        5.8350   47.4010   22.5840 C.ar    2  TRP2        0.0001
     14  CH2        7.0430   46.6820   22.6200 C.ar    2  TRP2        0.0015
     15  N         -8.2470   52.1570    9.8770 N.3    43  TYR43      -0.1241
     16  CA        -7.1310   51.2290    9.6890 C.3    43  TYR43       0.1605
     17  C         -7.3740   50.0020    8.8230 C.2    43  TYR43       0.2264
     18  O         -6.5260   49.6360    8.0100 O.2    43  TYR43      -0.2867
     19  CB        -6.6030   50.7730   11.0540 C.3    43  TYR43       0.0534
     20  CG        -5.4100   49.8400   10.9760 C.ar   43  TYR43      -0.0201
     21  CD1       -4.1190   50.3470   10.8630 C.ar   43  TYR43      -0.0009
     22  CD2       -5.5760   48.4500   10.9850 C.ar   43  TYR43      -0.0009
     23  CE1       -3.0180   49.5000   10.7550 C.ar   43  TYR43       0.0417
     24  CE2       -4.4820   47.5960   10.8830 C.ar   43  TYR43       0.0417
     25  CZ        -3.2070   48.1270   10.7670 C.ar   43  TYR43       0.1957
     26  OH        -2.1170   47.2960   10.6520 O.3    43  TYR43      -0.2866
     27  N         -7.2300   53.1430    5.5350 N.3    47  ARG47      -0.1245
     28  CA        -5.9890   53.3000    6.2930 C.3    47  ARG47       0.1563
     29  C         -5.2160   54.5730    5.9580 C.2    47  ARG47       0.2260
     30  O         -4.0890   54.5220    5.4640 O.2    47  ARG47      -0.2867
     31  CB        -5.0770   52.0820    6.0910 C.3    47  ARG47       0.0307
     32  CG        -3.8450   52.0720    7.0030 C.3    47  ARG47       0.0489
     33  CD        -3.0920   50.7560    6.9060 C.3    47  ARG47       0.2205
     34  NE        -3.9700   49.6400    7.2400 N.pl3  47  ARG47      -0.0865
     35  CZ        -3.5900   48.3690    7.3000 C.cat  47  ARG47       0.5346
     36  NH1       -2.3330   48.0310    7.0460 N.pl3  47  ARG47       0.1354
     37  NH2       -4.4750   47.4370    7.6210 N.pl3  47  ARG47       0.1354
     38  N         -0.4490   53.5220   16.8360 N.3    96  ARG96      -0.1245
     39  CA         0.5330   52.4560   16.7170 C.3    96  ARG96       0.1563
     40  C          1.8810   53.0770   17.0150 C.2    96  ARG96       0.2260
     41  O          2.1490   54.2000   16.5980 O.2    96  ARG96      -0.2867
     42  CB         0.5470   51.8660   15.3000 C.3    96  ARG96       0.0307
     43  CG         1.6390   50.8000   15.0850 C.3    96  ARG96       0.0489
     44  CD         1.5830   50.2300   13.6750 C.3    96  ARG96       0.2205
     45  NE         2.6240   49.2390   13.3920 N.pl3  96  ARG96      -0.0865
     46  CZ         2.7280   48.0520   13.9860 C.cat  96  ARG96       0.5346
     47  NH1        1.8590   47.6880   14.9200 N.pl3  96  ARG96       0.1354
     48  NH2        3.6830   47.2070   13.6170 N.pl3  96  ARG96       0.1354
     49  N         10.2080   43.9030   16.0570 N.3   101  SER101     -0.1202
     50  CA         9.4780   42.9870   16.9290 C.3   101  SER101      0.2020
     51  C          8.8010   43.7260   18.0810 C.2   101  SER101      0.2619
     52  O          7.7250   43.3350   18.5390 O.2   101  SER101     -0.2717
     53  CB        10.4270   41.9270   17.4890 C.3   101  SER101      0.2103
     54  OG         9.7470   41.0580   18.3780 O.3   101  SER101     -0.2182
     55  N          9.4400   44.7880   18.5580 N.am  102  ASN102     -0.1960
     56  CA         8.8740   45.5670   19.6470 C.3   102  ASN102      0.1819
     57  C          8.0840   46.7350   19.0750 C.2   102  ASN102      0.2621
     58  O          8.5920   47.8420   18.9200 O.2   102  ASN102     -0.2715
     59  CB         9.9790   46.0590   20.5790 C.3   102  ASN102      0.1195
     60  CG        10.6530   44.9200   21.3220 C.2   102  ASN102      0.2630
     61  OD1        9.9930   44.1340   22.0050 O.2   102  ASN102     -0.2716
     62  ND2       11.9710   44.8250   21.1940 N.am  102  ASN102     -0.0877
     63  N          6.8350   46.4480   18.7350 N.am  103  ARG103     -0.1963
     64  CA         5.9260   47.4320   18.1780 C.3   103  ARG103      0.1729
     65  C          4.5300   47.0260   18.6160 C.2   103  ARG103      0.2616
     66  O          4.2930   45.8700   18.9850 O.2   103  ARG103     -0.2715
     67  CB         6.0440   47.4690   16.6530 C.3   103  ARG103      0.0348
     68  CG         6.1200   46.1090   15.9940 C.3   103  ARG103      0.0492
     69  CD         6.3930   46.2620   14.5080 C.3   103  ARG103      0.2205
     70  NE         7.5810   47.0750   14.2560 N.pl3 103  ARG103     -0.0865
     71  CZ         7.9960   47.4300   13.0440 C.cat 103  ARG103      0.5346
     72  NH1        7.3180   47.0440   11.9700 N.pl3 103  ARG103      0.1354
     73  NH2        9.0880   48.1720   12.9010 N.pl3 103  ARG103      0.1354
     74  N          3.5990   47.9640   18.5770 N.am  104  TRP104     -0.1960
     75  CA         2.2640   47.6520   19.0480 C.3   104  TRP104      0.1771
     76  C          1.2010   48.4690   18.3470 C.2   104  TRP104      0.2619
     77  O          1.3890   49.6480   18.0550 O.2   104  TRP104     -0.2715
     78  CB         2.2270   47.8850   20.5660 C.3   104  TRP104      0.0590
     79  CG         0.9240   47.6020   21.2270 C.ar  104  TRP104      0.0006
     80  CD1       -0.1460   48.4450   21.3320 C.ar  104  TRP104      0.0946
     81  CD2        0.5450   46.3880   21.8760 C.ar  104  TRP104      0.0152
     82  NE1       -1.1710   47.8270   22.0050 N.ar  104  TRP104     -0.2442
     83  CE2       -0.7730   46.5620   22.3510 C.ar  104  TRP104      0.0810
     84  CE3        1.1900   45.1630   22.1010 C.ar  104  TRP104      0.0012
     85  CZ2       -1.4600   45.5590   23.0390 C.ar  104  TRP104      0.0191
     86  CZ3        0.5090   44.1650   22.7830 C.ar  104  TRP104      0.0001
     87  CH2       -0.8050   44.3690   23.2460 C.ar  104  TRP104      0.0015
     88  N          0.0760   47.8220   18.0890 N.am  105  LEU105     -0.1977
     89  CA        -1.0480   48.4600   17.4300 C.3   105  LEU105      0.1596
     90  C         -2.2750   48.3520   18.3220 C.2   105  LEU105      0.2287
     91  O         -2.6060   47.2700   18.7960 O.2   105  LEU105     -0.2864
     92  CB        -1.3400   47.7600   16.0950 C.3   105  LEU105      0.0297
     93  CG        -2.6490   48.1370   15.3860 C.3   105  LEU105      0.0022
     94  CD1       -2.5220   49.5290   14.7720 C.3   105  LEU105      0.0001
     95  CD2       -2.9620   47.1000   14.3030 C.3   105  LEU105      0.0001
     96  N         -5.8090   47.8880   18.5090 N.3   107  VAL107     -0.1245
     97  CA        -6.8570   47.4550   17.5890 C.3   107  VAL107      0.1561
     98  C         -8.2370   48.0440   17.8940 C.2   107  VAL107      0.2260
     99  O         -9.1130   48.0340   17.0350 O.2   107  VAL107     -0.2867
    100  CB        -6.9700   45.9140   17.5460 C.3   107  VAL107      0.0252
    101  CG1       -5.6670   45.3180   17.0300 C.3   107  VAL107      0.0019
    102  CG2       -7.2950   45.3760   18.9190 C.3   107  VAL107      0.0019
@<TRIPOS>BOND
     1    30    29    2
     2    27    28    1
     3    29    28    1
     4    31    28    1
     5    31    32    1
     6    33    32    1
     7    33    34    1
     8    36    35    1
     9    34    35    2
    10    35    37    1
    11    18    17    2
    12    17    16    1
    13    16    15    1
    14    16    19    1
    15    26    25    1
    16    23    25   ar
    17    23    21   ar
    18    25    24   ar
    19    21    20   ar
    20    24    22   ar
    21    20    22   ar
    22    20    19    1
    23    72    71    1
    24    73    71    1
    25    71    70    2
    26    45    44    1
    27    45    46    2
    28    48    46    1
    29    44    43    1
    30    46    47    1
    31    70    69    1
    32    95    93    1
    33    69    68    1
    34    94    93    1
    35    43    42    1
    36    42    39    1
    37    93    92    1
    38    68    67    1
    39    49    50    1
    40    92    89    1
    41    41    40    2
    42    67    64    1
    43    39    38    1
    44    39    40    1
    45    50    53    1
    46    50    51    1
    47   101   100    1
    48    99    98    2
    49    89    88    1
    50    89    90    1
    51    53    54    1
    52   100    97    1
    53   100   102    1
    54    97    98    1
    55    97    96    1
    56    77    76    2
    57    51    52    2
    58    51    55   am
    59    88    76   am
    60    64    65    1
    61    64    63    1
    62    90    91    2
    63    76    75    1
    64    55    56    1
    65    74    65   am
    66    74    75    1
    67    65    66    2
    68    63    57   am
    69    58    57    2
    70    75    78    1
    71    57    56    1
    72    56    59    1
    73    78    79    1
    74    59    60    1
    75    62    60   am
    76    79    80   ar
    77    79    81   ar
    78    60    61    2
    79    80    82   ar
    80    81    84   ar
    81    81    83   ar
    82    82    83   ar
    83    84    86   ar
    84    83    85   ar
    85    13    14   ar
    86    13    11   ar
    87    14    12   ar
    88    86    87   ar
    89    85    87   ar
    90    11     8   ar
    91    12    10   ar
    92     8    10   ar
    93     8     6   ar
    94    10     9   ar
    95     9     7   ar
    96     6     5    1
    97     6     7   ar
    98     5     2    1
    99     3     2    1
   100     3     4    2
   101     2     1    1
