@<TRIPOS>MOLECULE
tmp/1qftB00.pdb
 112 107 0 0 0
SMALL
GASTEIGER

@<TRIPOS>ATOM
      1  N         65.5980   74.3630    8.6400 N.3    19  SER19      -0.1202
      2  CA        64.1700   74.4630    8.3750 C.3    19  SER19       0.2020
      3  C         63.5590   73.1160    7.9460 C.2    19  SER19       0.2618
      4  O         62.4910   72.7270    8.4010 O.2    19  SER19      -0.2717
      5  CB        63.9310   75.4750    7.2770 C.3    19  SER19       0.2103
      6  OG        62.5620   75.4550    6.9220 O.3    19  SER19      -0.2182
      7  N         64.2490   72.4120    7.0700 N.am   20  LEU20      -0.1979
      8  CA        63.7460   71.1400    6.5790 C.3    20  LEU20       0.1596
      9  C         63.6770   70.0890    7.6800 C.2    20  LEU20       0.2287
     10  O         62.6640   69.4000    7.8110 O.2    20  LEU20      -0.2864
     11  CB        64.6340   70.6650    5.4450 C.3    20  LEU20       0.0297
     12  CG        64.0980   69.5110    4.5990 C.3    20  LEU20       0.0022
     13  CD1       62.7470   69.9010    3.9890 C.3    20  LEU20       0.0001
     14  CD2       65.1040   69.1540    3.5120 C.3    20  LEU20       0.0001
     15  N         60.7070   69.6060    9.9950 N.3    23  ASP23      -0.1239
     16  CA        59.5090   68.8460    9.5750 C.3    23  ASP23       0.1674
     17  C         59.4320   67.4780   10.2730 C.2    23  ASP23       0.2266
     18  O         58.4530   66.7480   10.1230 O.2    23  ASP23      -0.2867
     19  CB        59.5250   68.5700    8.0730 C.3    23  ASP23       0.1410
     20  CG        59.3280   69.8210    7.2220 C.2    23  ASP23       0.3668
     21  OD1       59.0420   70.9080    7.7720 O.co2  23  ASP23      -0.2456
     22  OD2       59.4550   69.6800    5.9740 O.co2  23  ASP23      -0.2456
     23  N         54.2370   71.2840    9.2370 N.3    28  TYR28      -0.1241
     24  CA        54.2230   72.6600    8.7770 C.3    28  TYR28       0.1605
     25  C         53.0690   72.7760    7.7730 C.2    28  TYR28       0.2264
     26  O         52.8830   71.9050    6.9140 O.2    28  TYR28      -0.2867
     27  CB        55.5290   73.0360    8.0770 C.3    28  TYR28       0.0534
     28  CG        56.6050   73.5360    9.0170 C.ar   28  TYR28      -0.0201
     29  CD1       57.2810   72.6520    9.8640 C.ar   28  TYR28      -0.0009
     30  CD2       56.9500   74.8830    9.0540 C.ar   28  TYR28      -0.0009
     31  CE1       58.2670   73.1010   10.7210 C.ar   28  TYR28       0.0417
     32  CE2       57.9430   75.3430    9.9030 C.ar   28  TYR28       0.0417
     33  CZ        58.5990   74.4400   10.7340 C.ar   28  TYR28       0.1957
     34  OH        59.6060   74.8770   11.5680 O.3    28  TYR28      -0.2866
     35  N         52.9030   69.4980    5.4950 N.3    50  VAL50      -0.1245
     36  CA        54.0070   68.5720    5.2710 C.3    50  VAL50       0.1561
     37  C         54.5510   68.0420    6.5880 C.2    50  VAL50       0.2260
     38  O         54.5370   68.7240    7.6190 O.2    50  VAL50      -0.2867
     39  CB        55.1720   69.2730    4.4760 C.3    50  VAL50       0.0252
     40  CG1       55.7310   70.4520    5.2560 C.3    50  VAL50       0.0019
     41  CG2       56.2870   68.2760    4.1310 C.3    50  VAL50       0.0019
     42  N         53.1070   65.0160    2.0120 N.3    66  PHE66      -0.1241
     43  CA        52.3600   66.2480    1.8490 C.3    66  PHE66       0.1605
     44  C         50.8860   65.9240    1.7230 C.2    66  PHE66       0.2264
     45  O         50.5180   65.0020    1.0150 O.2    66  PHE66      -0.2867
     46  CB        52.7540   66.9710    0.5670 C.3    66  PHE66       0.0534
     47  CG        54.1830   67.3870    0.5240 C.ar   66  PHE66      -0.0203
     48  CD1       55.1720   66.4580    0.2360 C.ar   66  PHE66      -0.0042
     49  CD2       54.5470   68.7040    0.7880 C.ar   66  PHE66      -0.0042
     50  CE1       56.5120   66.8400    0.2180 C.ar   66  PHE66      -0.0003
     51  CE2       55.8760   69.0920    0.7720 C.ar   66  PHE66      -0.0003
     52  CZ        56.8590   68.1610    0.4890 C.ar   66  PHE66      -0.0000
     53  N         62.8480   65.5820   -0.2470 N.3    83  VAL83      -0.1245
     54  CA        63.2250   66.9950   -0.2020 C.3    83  VAL83       0.1561
     55  C         64.6680   67.0360    0.3200 C.2    83  VAL83       0.2260
     56  O         64.9870   66.4100    1.3390 O.2    83  VAL83      -0.2867
     57  CB        62.3100   67.8690    0.7030 C.3    83  VAL83       0.0252
     58  CG1       62.5450   69.3430    0.4080 C.3    83  VAL83       0.0019
     59  CG2       60.8400   67.5280    0.4730 C.3    83  VAL83       0.0019
     60  N         65.3420   74.2530   -1.1050 N.3    97  PHE97      -0.1241
     61  CA        64.7580   72.9140   -1.0210 C.3    97  PHE97       0.1605
     62  C         64.6360   72.3520   -2.4410 C.2    97  PHE97       0.2264
     63  O         64.0280   72.9960   -3.3030 O.2    97  PHE97      -0.2867
     64  CB        63.3110   72.9220   -0.4700 C.3    97  PHE97       0.0534
     65  CG        63.1770   73.2410    1.0050 C.ar   97  PHE97      -0.0203
     66  CD1       64.2820   73.3460    1.8470 C.ar   97  PHE97      -0.0042
     67  CD2       61.9060   73.4460    1.5420 C.ar   97  PHE97      -0.0042
     68  CE1       64.1160   73.6460    3.2020 C.ar   97  PHE97      -0.0003
     69  CE2       61.7350   73.7460    2.8940 C.ar   97  PHE97      -0.0003
     70  CZ        62.8500   73.8490    3.7230 C.ar   97  PHE97      -0.0000
     71  N         62.9050   69.4540   -4.2430 N.3    99  TYR99      -0.1241
     72  CA        61.8940   68.4150   -4.1100 C.3    99  TYR99       0.1605
     73  C         62.0240   67.4790   -5.3130 C.2    99  TYR99       0.2264
     74  O         62.2230   67.9310   -6.4520 O.2    99  TYR99      -0.2867
     75  CB        60.4720   68.9990   -4.1970 C.3    99  TYR99       0.0534
     76  CG        60.0950   70.0180   -3.1660 C.ar   99  TYR99      -0.0201
     77  CD1       60.4860   71.3600   -3.2920 C.ar   99  TYR99      -0.0009
     78  CD2       59.2570   69.6670   -2.1330 C.ar   99  TYR99      -0.0009
     79  CE1       60.0210   72.3160   -2.4000 C.ar   99  TYR99       0.0417
     80  CE2       58.7830   70.6010   -1.2420 C.ar   99  TYR99       0.0417
     81  CZ        59.1590   71.9210   -1.3770 C.ar   99  TYR99       0.1957
     82  OH        58.5990   72.8250   -0.5000 O.3    99  TYR99      -0.2866
     83  N         58.4310   79.5930    7.7090 N.3   119  ASP119     -0.1239
     84  CA        59.3170   79.7940    6.5720 C.3   119  ASP119      0.1674
     85  C         58.6200   80.5970    5.4830 C.2   119  ASP119      0.2266
     86  O         57.4250   80.3840    5.2180 O.2   119  ASP119     -0.2867
     87  CB        59.6710   78.4400    5.9410 C.3   119  ASP119      0.1410
     88  CG        60.0170   77.3980    6.9720 C.2   119  ASP119      0.3668
     89  OD1       61.0540   77.5770    7.6360 O.co2 119  ASP119     -0.2456
     90  OD2       59.2490   76.4190    7.1200 O.co2 119  ASP119     -0.2456
     91  N         59.0960   81.0310    1.6520 N.3   121  ILE121     -0.1245
     92  CA        59.7830   80.3500    0.5580 C.3   121  ILE121      0.1561
     93  C         59.4590   80.9640   -0.7890 C.2   121  ILE121      0.2260
     94  O         58.2960   81.2890   -1.0770 O.2   121  ILE121     -0.2867
     95  CB        59.4110   78.8510    0.5720 C.3   121  ILE121      0.0252
     96  CG1       59.8100   78.2670    1.9450 C.3   121  ILE121      0.0019
     97  CG2       60.0820   78.1060   -0.6060 C.3   121  ILE121      0.0019
     98  CD1       59.6330   76.7610    2.0960 C.3   121  ILE121      0.0001
     99  N         54.8330   79.1770    5.2820 N.3   136  TRP136     -0.1241
    100  CA        54.6010   77.9210    6.0000 C.3   136  TRP136      0.1605
    101  C         54.8120   78.1640    7.4970 C.2   136  TRP136      0.2264
    102  O         55.7030   78.9270    7.8980 O.2   136  TRP136     -0.2867
    103  CB        55.6310   76.8560    5.5740 C.3   136  TRP136      0.0550
    104  CG        55.5760   76.4560    4.1310 C.ar  136  TRP136      0.0003
    105  CD1       56.0510   77.1590    3.0630 C.ar  136  TRP136      0.0946
    106  CD2       55.0820   75.2150    3.6100 C.ar  136  TRP136      0.0152
    107  NE1       55.8880   76.4280    1.9090 N.ar  136  TRP136     -0.2442
    108  CE2       55.2980   75.2300    2.2230 C.ar  136  TRP136      0.0810
    109  CE3       54.4780   74.0910    4.1890 C.ar  136  TRP136      0.0012
    110  CZ2       54.9310   74.1530    1.4000 C.ar  136  TRP136      0.0191
    111  CZ3       54.1150   73.0300    3.3750 C.ar  136  TRP136      0.0001
    112  CH2       54.3420   73.0630    1.9970 C.ar  136  TRP136      0.0015
@<TRIPOS>BOND
     1    74    73    2
     2    73    72    1
     3    71    72    1
     4    75    72    1
     5    75    76    1
     6    63    62    2
     7    77    76   ar
     8    77    79   ar
     9    76    78   ar
    10    62    61    1
    11    79    81   ar
    12    78    80   ar
    13    81    80   ar
    14    81    82    1
    15    60    61    1
    16    94    93    2
    17    61    64    1
    18    93    92    1
    19    97    95    1
    20    64    65    1
    21    53    54    1
    22    54    55    1
    23    54    57    1
    24    50    48   ar
    25    50    52   ar
    26    48    47   ar
    27    55    56    2
    28    58    57    1
    29    59    57    1
    30    52    51   ar
    31    47    46    1
    32    47    49   ar
    33    92    95    1
    34    92    91    1
    35    46    43    1
    36    95    96    1
    37    51    49   ar
    38    65    67   ar
    39    65    66   ar
    40    45    44    2
    41   110   112   ar
    42   110   108   ar
    43    67    69   ar
    44    44    43    1
    45    66    68   ar
    46    43    42    1
    47   107   108   ar
    48   107   105   ar
    49    96    98    1
    50   112   111   ar
    51   108   106   ar
    52    69    70   ar
    53   105   104   ar
    54    68    70   ar
    55   111   109   ar
    56    14    12    1
    57   106   104   ar
    58   106   109   ar
    59    13    12    1
    60    41    39    1
    61   104   103    1
    62    39    40    1
    63    39    36    1
    64    12    11    1
    65    86    85    2
    66    36    35    1
    67    36    37    1
    68    99   100    1
    69    11     8    1
    70    85    84    1
    71   103   100    1
    72    87    84    1
    73    87    88    1
    74    22    20   ar
    75   100   101    1
    76    84    83    1
    77     8     7    1
    78     8     9    1
    79    37    38    2
    80    26    25    2
    81     6     5    1
    82    88    90   ar
    83    88    89   ar
    84     7     3   am
    85    20    21   ar
    86    20    19    1
    87     5     2    1
    88   101   102    2
    89     9    10    2
    90    25    24    1
    91     3     2    1
    92     3     4    2
    93    19    16    1
    94    27    24    1
    95    27    28    1
    96     2     1    1
    97    24    23    1
    98    28    30   ar
    99    28    29   ar
   100    30    32   ar
   101    16    15    1
   102    16    17    1
   103    29    31   ar
   104    32    33   ar
   105    18    17    2
   106    31    33   ar
   107    33    34    1
