@<TRIPOS>MOLECULE
tmp/1qfvA00.pdb
 116 111 0 0 0
SMALL
GASTEIGER

@<TRIPOS>ATOM
      1  N         73.9010   55.7680   25.9530 N.3    36  TYR36      -0.1241
      2  CA        74.9560   55.3430   26.8680 C.3    36  TYR36       0.1605
      3  C         76.1970   54.9550   26.0840 C.2    36  TYR36       0.2264
      4  O         76.1210   54.6480   24.9010 O.2    36  TYR36      -0.2867
      5  CB        74.4700   54.2250   27.8150 C.3    36  TYR36       0.0534
      6  CG        74.0880   52.9390   27.1170 C.ar   36  TYR36      -0.0201
      7  CD1       72.8360   52.7900   26.4900 C.ar   36  TYR36      -0.0009
      8  CD2       75.0040   51.9020   27.0070 C.ar   36  TYR36      -0.0009
      9  CE1       72.5270   51.6330   25.7540 C.ar   36  TYR36       0.0417
     10  CE2       74.7100   50.7600   26.2920 C.ar   36  TYR36       0.0417
     11  CZ        73.4770   50.6260   25.6620 C.ar   36  TYR36       0.1957
     12  OH        73.2310   49.4830   24.9430 O.3    36  TYR36      -0.2866
     13  N         78.9640   49.0240   27.0660 N.3    39  ASP39      -0.1239
     14  CA        78.1710   47.7940   27.1890 C.3    39  ASP39       0.1674
     15  C         79.1620   46.7170   27.6830 C.2    39  ASP39       0.2266
     16  O         80.2890   46.6700   27.1930 O.2    39  ASP39      -0.2867
     17  CB        77.5600   47.3750   25.8540 C.3    39  ASP39       0.1410
     18  CG        76.8030   46.0770   25.9610 C.2    39  ASP39       0.3668
     19  OD1       75.6910   46.0900   26.5170 O.co2  39  ASP39      -0.2456
     20  OD2       77.3340   45.0250   25.5600 O.co2  39  ASP39      -0.2456
     21  N         79.4520   43.7110   26.9730 N.3    41  VAL41      -0.1231
     22  CA        79.8980   42.8640   25.8790 C.3    41  VAL41       0.1692
     23  C         80.4730   43.6600   24.7060 C.2    41  VAL41       0.2592
     24  O         81.5900   43.3690   24.2210 O.2    41  VAL41      -0.2718
     25  CB        78.7440   41.9470   25.3690 C.3    41  VAL41       0.0266
     26  CG1       79.1320   41.2080   24.0820 C.3    41  VAL41       0.0020
     27  CG2       78.3430   40.9780   26.4630 C.3    41  VAL41       0.0020
     28  N         79.7620   44.6970   24.2680 N.am   42  TRP42      -0.1976
     29  CA        80.2570   45.4320   23.1070 C.3    42  TRP42       0.1640
     30  C         81.4250   46.3440   23.4010 C.2    42  TRP42       0.2290
     31  O         82.0800   46.8000   22.4650 O.2    42  TRP42      -0.2864
     32  CB        79.1280   46.2110   22.4220 C.3    42  TRP42       0.0576
     33  CG        78.0210   45.3050   21.9760 C.ar   42  TRP42       0.0006
     34  CD1       78.1500   44.0310   21.4680 C.ar   42  TRP42       0.0946
     35  CD2       76.6100   45.5710   22.0510 C.ar   42  TRP42       0.0152
     36  NE1       76.8940   43.4870   21.2330 N.ar   42  TRP42      -0.2442
     37  CE2       75.9370   44.4090   21.5830 C.ar   42  TRP42       0.0810
     38  CE3       75.8520   46.6790   22.4770 C.ar   42  TRP42       0.0012
     39  CZ2       74.5380   44.3230   21.5320 C.ar   42  TRP42       0.0191
     40  CZ3       74.4620   46.5920   22.4310 C.ar   42  TRP42       0.0001
     41  CH2       73.8230   45.4230   21.9580 C.ar   42  TRP42       0.0015
     42  N         76.0160   39.2360   15.9550 N.3    67  PHE67      -0.1241
     43  CA        76.3040   40.6620   16.1020 C.3    67  PHE67       0.1605
     44  C         77.6540   41.0670   15.5460 C.2    67  PHE67       0.2264
     45  O         78.6000   40.2710   15.5090 O.2    67  PHE67      -0.2867
     46  CB        76.3330   41.0560   17.5940 C.3    67  PHE67       0.0534
     47  CG        75.0140   40.8630   18.3170 C.ar   67  PHE67      -0.0203
     48  CD1       74.6390   39.5990   18.7880 C.ar   67  PHE67      -0.0042
     49  CD2       74.1510   41.9290   18.5110 C.ar   67  PHE67      -0.0042
     50  CE1       73.4320   39.4080   19.4320 C.ar   67  PHE67      -0.0003
     51  CE2       72.9460   41.7430   19.1550 C.ar   67  PHE67      -0.0003
     52  CZ        72.5820   40.4800   19.6200 C.ar   67  PHE67      -0.0000
     53  N         74.8170   35.3410   20.1490 N.3    82  GLU82      -0.1245
     54  CA        74.0700   35.2270   21.3920 C.3    82  GLU82       0.1567
     55  C         72.6810   34.7180   21.0620 C.2    82  GLU82       0.2260
     56  O         72.1960   34.9020   19.9440 O.2    82  GLU82      -0.2867
     57  CB        73.9290   36.5950   22.0760 C.3    82  GLU82       0.0388
     58  CG        75.2600   37.2900   22.2890 C.3    82  GLU82       0.1160
     59  CD        75.1150   38.6610   22.9430 C.2    82  GLU82       0.3649
     60  OE1       73.9720   39.1100   23.1860 O.co2  82  GLU82      -0.2457
     61  OE2       76.1630   39.2980   23.1970 O.co2  82  GLU82      -0.2457
     62  N         68.7640   38.3050   26.1640 N.3   100  TYR100     -0.1241
     63  CA        69.9740   37.9000   25.4500 C.3   100  TYR100      0.1605
     64  C         70.7440   36.9740   26.3630 C.2   100  TYR100      0.2264
     65  O         70.8240   37.2260   27.5700 O.2   100  TYR100     -0.2867
     66  CB        70.9010   39.1030   25.2130 C.3   100  TYR100      0.0534
     67  CG        70.3480   40.2330   24.3720 C.ar  100  TYR100     -0.0201
     68  CD1       69.6010   41.2590   24.9450 C.ar  100  TYR100     -0.0009
     69  CD2       70.6570   40.3250   23.0320 C.ar  100  TYR100     -0.0009
     70  CE1       69.1870   42.3550   24.1880 C.ar  100  TYR100      0.0417
     71  CE2       70.2610   41.4060   22.2690 C.ar  100  TYR100      0.0417
     72  CZ        69.5260   42.4260   22.8580 C.ar  100  TYR100      0.1957
     73  OH        69.1900   43.5420   22.1040 O.3   100  TYR100     -0.2866
     74  N         71.1250   39.4200   29.5810 N.3   108  PHE108     -0.1241
     75  CA        70.7070   40.8370   29.5600 C.3   108  PHE108      0.1605
     76  C         69.2260   40.8610   29.1630 C.2   108  PHE108      0.2264
     77  O         68.8460   40.2340   28.1720 O.2   108  PHE108     -0.2867
     78  CB        71.4500   41.6700   28.5130 C.3   108  PHE108      0.0534
     79  CG        72.9390   41.7750   28.7560 C.ar  108  PHE108     -0.0203
     80  CD1       73.4640   42.7970   29.5580 C.ar  108  PHE108     -0.0042
     81  CD2       73.8220   40.8740   28.1630 C.ar  108  PHE108     -0.0042
     82  CE1       74.8500   42.9210   29.7590 C.ar  108  PHE108     -0.0003
     83  CE2       75.2190   40.9960   28.3620 C.ar  108  PHE108     -0.0003
     84  CZ        75.7250   42.0230   29.1610 C.ar  108  PHE108     -0.0000
     85  N         66.4250   43.4700   28.0160 N.3   110  ASP110     -0.1239
     86  CA        66.0620   44.8210   27.5800 C.3   110  ASP110      0.1674
     87  C         64.5760   44.8430   27.1530 C.2   110  ASP110      0.2266
     88  O         64.0120   43.8190   26.7640 O.2   110  ASP110     -0.2867
     89  CB        66.9840   45.2830   26.4640 C.3   110  ASP110      0.1410
     90  CG        68.4150   45.4320   26.9490 C.2   110  ASP110      0.3668
     91  OD1       68.5990   45.5730   28.1810 O.co2 110  ASP110     -0.2456
     92  OD2       69.3420   45.4230   26.0970 O.co2 110  ASP110     -0.2456
     93  N         67.1140   49.9080   28.1650 N.3   124  VAL124     -0.1245
     94  CA        68.0450   49.1030   28.9590 C.3   124  VAL124      0.1561
     95  C         67.7950   49.5160   30.4110 C.2   124  VAL124      0.2260
     96  O         68.1620   50.6220   30.8270 O.2   124  VAL124     -0.2867
     97  CB        69.5230   49.4030   28.5700 C.3   124  VAL124      0.0252
     98  CG1       70.4680   48.5140   29.4140 C.3   124  VAL124      0.0019
     99  CG2       69.7080   49.1780   27.0500 C.3   124  VAL124      0.0019
    100  N         74.9760   47.0330   34.0460 N.3   130  ASN130     -0.1240
    101  CA        75.1570   47.9540   32.9270 C.3   130  ASN130      0.1653
    102  C         74.4600   49.2810   33.1170 C.2   130  ASN130      0.2266
    103  O         73.7300   49.4820   34.0880 O.2   130  ASN130     -0.2867
    104  CB        74.6870   47.3070   31.6060 C.3   130  ASN130      0.1155
    105  CG        73.2460   46.7470   31.6830 C.2   130  ASN130      0.2627
    106  OD1       72.6280   46.7120   32.7590 O.2   130  ASN130     -0.2716
    107  ND2       72.7360   46.2770   30.5400 N.am  130  ASN130     -0.0877
    108  N         68.2060   52.7140   23.1880 N.3   135  GLU135     -0.1245
    109  CA        68.8280   52.3960   21.9100 C.3   135  GLU135      0.1567
    110  C         67.8030   52.6010   20.7860 C.2   135  GLU135      0.2260
    111  O         66.6120   52.3930   20.9800 O.2   135  GLU135     -0.2867
    112  CB        69.2400   50.9050   21.8740 C.3   135  GLU135      0.0388
    113  CG        70.1690   50.4980   23.0040 C.3   135  GLU135      0.1160
    114  CD        70.2530   48.9990   23.1960 C.2   135  GLU135      0.3649
    115  OE1       69.5230   48.2450   22.5350 O.co2 135  GLU135     -0.2457
    116  OE2       71.0520   48.5690   24.0440 O.co2 135  GLU135     -0.2457
@<TRIPOS>BOND
     1    45    44    2
     2    44    43    1
     3    42    43    1
     4    43    46    1
     5    46    47    1
     6    47    49   ar
     7    47    48   ar
     8    49    51   ar
     9    48    50   ar
    10    51    52   ar
    11    50    52   ar
    12    56    55    2
    13    53    54    1
    14   110   111    2
    15   110   109    1
    16    55    54    1
    17    36    34   ar
    18    36    37   ar
    19    54    57    1
    20    34    33   ar
    21    39    37   ar
    22    39    41   ar
    23    37    35   ar
    24   112   109    1
    25   112   113    1
    26   109   108    1
    27    41    40   ar
    28    33    35   ar
    29    33    32    1
    30    35    38   ar
    31    57    58    1
    32    73    72    1
    33    71    72   ar
    34    71    69   ar
    35    58    59    1
    36    32    29    1
    37    40    38   ar
    38    31    30    2
    39   115   114   ar
    40    72    70   ar
    41    59    60   ar
    42    59    61   ar
    43   113   114    1
    44    69    67   ar
    45    29    30    1
    46    29    28    1
    47   114   116   ar
    48    26    25    1
    49    70    68   ar
    50    24    23    2
    51    28    23   am
    52    67    68   ar
    53    67    66    1
    54    23    22    1
    55     4     3    2
    56    12    11    1
    57    66    63    1
    58    25    22    1
    59    25    27    1
    60    63    62    1
    61    63    64    1
    62    20    18   ar
    63    11     9   ar
    64    11    10   ar
    65     9     7   ar
    66    17    18    1
    67    17    14    1
    68    22    21    1
    69     1     2    1
    70    18    19   ar
    71     3     2    1
    72    92    90   ar
    73    10     8   ar
    74    64    65    2
    75    89    90    1
    76    89    86    1
    77     7     6   ar
    78    88    87    2
    79     2     5    1
    80    90    91   ar
    81     8     6   ar
    82    99    97    1
    83    13    14    1
    84     6     5    1
    85    87    86    1
    86    14    15    1
    87    16    15    2
    88    86    85    1
    89    81    83   ar
    90    81    79   ar
    91    93    94    1
    92    77    76    2
    93    83    84   ar
    94    78    79    1
    95    78    75    1
    96    97    94    1
    97    97    98    1
    98    79    80   ar
    99    94    95    1
   100    84    82   ar
   101    76    75    1
   102    80    82   ar
   103    75    74    1
   104    95    96    2
   105   107   105   am
   106   104   105    1
   107   104   101    1
   108   105   106    2
   109   101   102    1
   110   101   100    1
   111   102   103    2
