@<TRIPOS>MOLECULE
tmp/1qfxB01.pdb
 88 85 0 0 0
SMALL
GASTEIGER

@<TRIPOS>ATOM
      1  N         77.6970   44.6840   69.8440 N.3   165  ASN165     -0.1225
      2  CA        78.2360   44.3510   68.5280 C.3   165  ASN165      0.1785
      3  C         78.1740   45.6690   67.7540 C.2   165  ASN165      0.2597
      4  O         77.0910   46.2450   67.6210 O.2   165  ASN165     -0.2718
      5  CB        77.3200   43.3420   67.8280 C.3   165  ASN165      0.1169
      6  CG        77.6260   41.8970   68.1980 C.2   165  ASN165      0.2627
      7  OD1       78.0550   41.1240   67.3480 O.2   165  ASN165     -0.2716
      8  ND2       77.3780   41.5220   69.4500 N.am  165  ASN165     -0.0877
      9  N         79.3150   46.1790   67.2930 N.am  166  ILE166     -0.1966
     10  CA        79.3610   47.4460   66.5450 C.3   166  ILE166      0.1727
     11  C         79.4840   47.1550   65.0420 C.2   166  ILE166      0.2616
     12  O         80.3750   46.4280   64.6130 O.2   166  ILE166     -0.2715
     13  CB        80.5250   48.3560   67.0590 C.3   166  ILE166      0.0290
     14  CG1       80.3400   48.6210   68.5540 C.3   166  ILE166      0.0022
     15  CG2       80.5540   49.6810   66.3140 C.3   166  ILE166      0.0023
     16  CD1       81.4080   49.4740   69.1860 C.3   166  ILE166      0.0001
     17  N         78.5430   47.6720   64.2610 N.am  167  ILE167     -0.1977
     18  CA        78.4940   47.4590   62.8220 C.3   167  ILE167      0.1596
     19  C         79.0110   48.6770   62.0550 C.2   167  ILE167      0.2287
     20  O         78.4270   49.7600   62.0960 O.2   167  ILE167     -0.2864
     21  CB        77.0450   47.1750   62.3630 C.3   167  ILE167      0.0276
     22  CG1       76.3850   46.1630   63.3080 C.3   167  ILE167      0.0022
     23  CG2       77.0050   46.7620   60.8740 C.3   167  ILE167      0.0022
     24  CD1       77.1450   44.8580   63.4860 C.3   167  ILE167      0.0001
     25  N         73.9580   40.2950   60.7320 N.3   417  PHE417     -0.1241
     26  CA        74.3040   40.4860   62.1430 C.3   417  PHE417      0.1605
     27  C         73.2910   40.0920   63.1950 C.2   417  PHE417      0.2264
     28  O         73.6670   39.8070   64.3310 O.2   417  PHE417     -0.2867
     29  CB        74.8990   41.8680   62.4280 C.3   417  PHE417      0.0534
     30  CG        74.0010   43.0100   62.0790 C.ar  417  PHE417     -0.0203
     31  CD1       73.0700   43.4750   62.9940 C.ar  417  PHE417     -0.0042
     32  CD2       74.1230   43.6600   60.8520 C.ar  417  PHE417     -0.0042
     33  CE1       72.2840   44.5730   62.7040 C.ar  417  PHE417     -0.0003
     34  CE2       73.3440   44.7560   60.5460 C.ar  417  PHE417     -0.0003
     35  CZ        72.4210   45.2170   61.4770 C.ar  417  PHE417     -0.0000
     36  N         74.2710   36.3420   63.0630 N.3   420  ASN420     -0.1225
     37  CA        75.6960   36.0510   63.2020 C.3   420  ASN420      0.1785
     38  C         76.3310   37.1940   63.9960 C.2   420  ASN420      0.2597
     39  O         76.6770   38.2290   63.4290 O.2   420  ASN420     -0.2718
     40  CB        76.3500   35.9500   61.8180 C.3   420  ASN420      0.1169
     41  CG        75.6490   34.9690   60.9170 C.2   420  ASN420      0.2627
     42  OD1       75.1760   35.3240   59.8360 O.2   420  ASN420     -0.2716
     43  ND2       75.5980   33.7140   61.3400 N.am  420  ASN420     -0.0877
     44  N         76.5210   36.9850   65.2920 N.am  421  TYR421     -0.1962
     45  CA        77.0750   38.0010   66.1600 C.3   421  TYR421      0.1771
     46  C         77.9740   37.3790   67.2250 C.2   421  TYR421      0.2619
     47  O         78.0060   36.1550   67.3820 O.2   421  TYR421     -0.2715
     48  CB        75.9030   38.6980   66.8540 C.3   421  TYR421      0.0574
     49  CG        74.9500   37.7140   67.5170 C.ar  421  TYR421     -0.0198
     50  CD1       75.2350   37.1740   68.7750 C.ar  421  TYR421     -0.0009
     51  CD2       73.8060   37.2510   66.8450 C.ar  421  TYR421     -0.0009
     52  CE1       74.4280   36.1900   69.3480 C.ar  421  TYR421      0.0417
     53  CE2       72.9810   36.2700   67.4110 C.ar  421  TYR421      0.0417
     54  CZ        73.3120   35.7460   68.6600 C.ar  421  TYR421      0.1957
     55  OH        72.5330   34.7640   69.2100 O.3   421  TYR421     -0.2866
     56  N         78.6100   38.2350   68.0300 N.am  422  ASN422     -0.1972
     57  CA        79.4790   37.7960   69.1140 C.3   422  ASN422      0.1688
     58  C         78.7690   38.0130   70.4200 C.2   422  ASN422      0.2292
     59  O         77.8610   38.8410   70.5070 O.2   422  ASN422     -0.2864
     60  CB        80.7890   38.5820   69.1450 C.3   422  ASN422      0.1181
     61  CG        81.4980   38.5550   67.8340 C.2   422  ASN422      0.2629
     62  OD1       81.6610   37.5050   67.2050 O.2   422  ASN422     -0.2716
     63  ND2       81.9040   39.7120   67.3850 N.am  422  ASN422     -0.0877
     64  N         83.4750   42.7790   75.6330 N.3   426  GLU426     -0.1231
     65  CA        84.6210   43.6730   75.5310 C.3   426  GLU426      0.1699
     66  C         84.2960   45.0970   75.0630 C.2   426  GLU426      0.2592
     67  O         84.9110   46.0390   75.5420 O.2   426  GLU426     -0.2718
     68  CB        85.6880   43.0310   74.6260 C.3   426  GLU426      0.0402
     69  CG        85.0560   42.1840   73.5000 C.3   426  GLU426      0.1161
     70  CD        86.0390   41.6640   72.4570 C.2   426  GLU426      0.3649
     71  OE1       86.7770   40.6860   72.7360 O.co2 426  GLU426     -0.2457
     72  OE2       86.0230   42.2060   71.3310 O.co2 426  GLU426     -0.2457
     73  N         83.3150   45.2650   74.1740 N.am  427  LEU427     -0.1980
     74  CA        82.9480   46.5940   73.6620 C.3   427  LEU427      0.1596
     75  C         81.8940   47.3470   74.4960 C.2   427  LEU427      0.2287
     76  O         81.5450   48.4860   74.1760 O.2   427  LEU427     -0.2864
     77  CB        82.4510   46.4760   72.2200 C.3   427  LEU427      0.0297
     78  CG        83.4030   45.8770   71.1960 C.3   427  LEU427      0.0022
     79  CD1       82.7030   45.8180   69.8340 C.3   427  LEU427      0.0001
     80  CD2       84.6650   46.7370   71.1300 C.3   427  LEU427      0.0001
     81  N         84.7750   52.5580   66.0450 N.3   442  MET442     -0.1245
     82  CA        84.4700   51.1490   66.2030 C.3   442  MET442      0.1570
     83  C         84.6620   50.7520   67.6620 C.2   442  MET442      0.2261
     84  O         84.7310   49.5700   68.0070 O.2   442  MET442     -0.2867
     85  CB        85.3320   50.3100   65.2690 C.3   442  MET442      0.0387
     86  CG        84.9390   50.4190   63.7930 C.3   442  MET442      0.0595
     87  SD        83.2270   49.8530   63.3950 S.3   442  MET442     -0.1393
     88  CE        83.2740   48.0360   63.7570 C.3   442  MET442      0.0692
@<TRIPOS>BOND
     1    42    41    2
     2    34    32   ar
     3    34    35   ar
     4    25    26    1
     5    32    30   ar
     6    23    21    1
     7    41    43   am
     8    41    40    1
     9    35    33   ar
    10    40    37    1
    11    19    20    2
    12    19    18    1
    13    30    29    1
    14    30    31   ar
    15    26    29    1
    16    26    27    1
    17    21    18    1
    18    21    22    1
    19    33    31   ar
    20    18    17    1
    21    36    37    1
    22    27    28    2
    23    37    38    1
    24    22    24    1
    25    87    88    1
    26    87    86    1
    27    39    38    2
    28    86    85    1
    29    38    44   am
    30    17    11   am
    31    12    11    2
    32    11    10    1
    33    85    82    1
    34    44    45    1
    35    81    82    1
    36    45    48    1
    37    45    46    1
    38    82    83    1
    39    15    13    1
    40    10    13    1
    41    10     9    1
    42    51    53   ar
    43    51    49   ar
    44    48    49    1
    45    13    14    1
    46    62    61    2
    47    46    47    2
    48    46    56   am
    49     9     3   am
    50     7     6    2
    51    63    61   am
    52    53    54   ar
    53    49    50   ar
    54     4     3    2
    55    83    84    2
    56     3     2    1
    57     5     6    1
    58     5     2    1
    59    61    60    1
    60    56    57    1
    61     6     8   am
    62     2     1    1
    63    14    16    1
    64    54    55    1
    65    54    52   ar
    66    50    52   ar
    67    57    60    1
    68    57    58    1
    69    79    78    1
    70    58    59    2
    71    80    78    1
    72    78    77    1
    73    72    70   ar
    74    77    74    1
    75    70    71   ar
    76    70    69    1
    77    69    68    1
    78    74    73    1
    79    74    75    1
    80    73    66   am
    81    76    75    2
    82    68    65    1
    83    66    65    1
    84    66    67    2
    85    65    64    1
