@<TRIPOS>MOLECULE
tmp/1qfyA01.pdb
 189 176 0 0 0
SMALL
GASTEIGER

@<TRIPOS>ATOM
      1  N         13.2040    7.2630    1.5540 N.3    51  THR51      -0.1218
      2  CA        11.9110    6.9650    2.1870 C.3    51  THR51       0.1862
      3  C         12.1910    7.0050    3.6830 C.2    51  THR51       0.2287
      4  O         13.1530    6.3920    4.1550 O.2    51  THR51      -0.2866
      5  CB        11.3230    5.5740    1.7940 C.3    51  THR51       0.1770
      6  OG1       11.0330    5.5480    0.3960 O.3    51  THR51      -0.2211
      7  CG2       10.0400    5.3160    2.5360 C.3    51  THR51       0.0375
      8  N         -6.1190    6.1530    6.2810 N.3    69  SER69      -0.1217
      9  CA        -5.1440    7.2050    6.0010 C.3    69  SER69       0.1889
     10  C         -5.4030    8.4030    6.8910 C.2    69  SER69       0.2288
     11  O         -6.4370    8.4930    7.5420 O.2    69  SER69      -0.2866
     12  CB        -5.3100    7.7060    4.5600 C.3    69  SER69       0.2089
     13  OG        -5.1710    6.6770    3.6070 O.3    69  SER69      -0.2183
     14  N         -1.1320    6.8630    3.8150 N.3    90  SER90      -0.1217
     15  CA        -1.6110    5.6130    4.4120 C.3    90  SER90       0.1889
     16  C         -0.8650    5.3830    5.7270 C.2    90  SER90       0.2288
     17  O          0.3360    5.6080    5.8270 O.2    90  SER90      -0.2866
     18  CB        -1.3900    4.4140    3.4770 C.3    90  SER90       0.2089
     19  OG        -2.2800    4.4220    2.3770 O.3    90  SER90      -0.2183
     20  N          8.0050    8.9080    1.0000 N.3   110  LYS110     -0.1245
     21  CA         9.0280    9.0280   -0.0420 C.3   110  LYS110      0.1561
     22  C          9.2500   10.5290   -0.2990 C.2   110  LYS110      0.2260
     23  O          8.2930   11.2610   -0.5300 O.2   110  LYS110     -0.2867
     24  CB         8.5360    8.3550   -1.3310 C.3   110  LYS110      0.0271
     25  CG         9.3350    8.6820   -2.5790 C.3   110  LYS110      0.0035
     26  CD        10.7430    8.1680   -2.4650 C.3   110  LYS110      0.0206
     27  CE        10.9870    7.0260   -3.4250 C.3   110  LYS110      0.1093
     28  NZ        10.9020    7.4880   -4.8410 N.3   110  LYS110     -0.1314
     29  N          3.5970   -1.6960   -3.9540 N.3   164  THR164     -0.1203
     30  CA         4.7590   -1.1270   -4.6300 C.3   164  THR164      0.1994
     31  C          5.2070    0.1320   -3.8750 C.2   164  THR164      0.2618
     32  O          4.3870    0.9910   -3.5300 O.2   164  THR164     -0.2717
     33  CB         4.4640   -0.7570   -6.1230 C.3   164  THR164      0.1784
     34  OG1        3.1910   -0.1060   -6.2250 O.3   164  THR164     -0.2211
     35  CG2        4.4860   -1.9900   -7.0180 C.3   164  THR164      0.0376
     36  N          6.5040    0.1970   -3.5760 N.am  165  GLY165     -0.1942
     37  CA         7.0550    1.3370   -2.8720 C.3   165  GLY165      0.2014
     38  C          6.3910    1.5900   -1.5340 C.2   165  GLY165      0.2640
     39  O          6.2020    0.6590   -0.7600 O.2   165  GLY165     -0.2714
     40  N          6.0350    2.8460   -1.2740 N.am  166  THR166     -0.1936
     41  CA         5.3820    3.2400   -0.0290 C.3   166  THR166      0.2028
     42  C          3.9810    2.6510    0.1140 C.2   166  THR166      0.2642
     43  O          3.3310    2.8130    1.1590 O.2   166  THR166     -0.2714
     44  CB         5.3310    4.7800    0.1540 C.3   166  THR166      0.1808
     45  OG1        4.7550    5.3840   -1.0080 O.3   166  THR166     -0.2208
     46  CG2        6.7180    5.3380    0.3740 C.3   166  THR166      0.0379
     47  N          3.5250    1.9640   -0.9330 N.am  167  GLY167     -0.1954
     48  CA         2.2390    1.2880   -0.8870 C.3   167  GLY167      0.1869
     49  C          2.2910    0.1460    0.1320 C.2   167  GLY167      0.2309
     50  O          1.2890   -0.5110    0.4090 O.2   167  GLY167     -0.2863
     51  N          2.9140    0.6180    3.2070 N.3   169  ALA169     -0.1245
     52  CA         2.3780    1.2010    4.4550 C.3   169  ALA169      0.1562
     53  C          1.1960    0.4950    5.1590 C.2   169  ALA169      0.2260
     54  O          1.3330    0.0720    6.3140 O.2   169  ALA169     -0.2867
     55  CB         2.0820    2.7060    4.2690 C.3   169  ALA169      0.0290
     56  N          7.1980   -4.7160   -4.4560 N.3   197  GLY197     -0.1210
     57  CA         8.0910   -4.3290   -5.5260 C.3   197  GLY197      0.1956
     58  C          8.7800   -3.0300   -5.1870 C.2   197  GLY197      0.2612
     59  O          8.1210   -2.0560   -4.8240 O.2   197  GLY197     -0.2717
     60  N         10.1090   -3.0240   -5.2570 N.am  198  VAL198     -0.1966
     61  CA        10.9130   -1.8280   -4.9810 C.3   198  VAL198      0.1712
     62  C         12.0150   -1.8210   -6.0630 C.2   198  VAL198      0.2458
     63  O         12.3120   -2.8660   -6.6490 O.2   198  VAL198     -0.2730
     64  CB        11.4950   -1.8630   -3.5400 C.3   198  VAL198      0.0289
     65  CG1       10.3680   -1.8080   -2.5030 C.3   198  VAL198      0.0023
     66  CG2       12.3230   -3.1230   -3.3360 C.3   198  VAL198      0.0023
     67  N         12.6520   -0.6670   -6.3380 N.am  199  PRO199     -0.2727
     68  CA        13.6760   -0.7290   -7.3940 C.3   199  PRO199      0.1402
     69  C         15.0350   -1.3790   -7.0920 C.2   199  PRO199      0.2269
     70  O         15.6150   -2.0120   -7.9680 O.2   199  PRO199     -0.2865
     71  CB        13.8180    0.7440   -7.8080 C.3   199  PRO199      0.0296
     72  CG        13.6480    1.4580   -6.5330 C.3   199  PRO199      0.0237
     73  CD        12.4730    0.7230   -5.8690 C.3   199  PRO199      0.0939
     74  N         10.3060   -8.1900   -5.0910 N.3   226  ALA226     -0.1245
     75  CA        10.4800   -8.0380   -6.5280 C.3   226  ALA226      0.1562
     76  C         11.3330   -6.7880   -6.7760 C.2   226  ALA226      0.2260
     77  O         10.8110   -5.6770   -6.8810 O.2   226  ALA226     -0.2867
     78  CB         9.1050   -7.9130   -7.2210 C.3   226  ALA226      0.0290
     79  N         13.0240   -4.7380   -9.1290 N.3   228  SER228     -0.1202
     80  CA        12.9970   -4.4320  -10.5600 C.3   228  SER228      0.2020
     81  C         14.2810   -4.1260  -11.3090 C.2   228  SER228      0.2618
     82  O         14.4050   -4.4700  -12.4790 O.2   228  SER228     -0.2717
     83  CB        12.0010   -3.2990  -10.8400 C.3   228  SER228      0.2103
     84  OG        12.4380   -2.0730  -10.2700 O.3   228  SER228     -0.2182
     85  N         15.2180   -3.4510  -10.6650 N.am  229  ARG229     -0.1979
     86  CA        16.4480   -3.0880  -11.3520 C.3   229  ARG229      0.1597
     87  C         17.6530   -3.9710  -11.0210 C.2   229  ARG229      0.2287
     88  O         18.7640   -3.7160  -11.4880 O.2   229  ARG229     -0.2864
     89  CB        16.7240   -1.5870  -11.1410 C.3   229  ARG229      0.0334
     90  CG        15.4330   -0.7850  -11.3360 C.3   229  ARG229      0.0492
     91  CD        15.5890    0.6180  -11.8920 C.3   229  ARG229      0.2205
     92  NE        15.9590    1.5860  -10.8780 N.pl3 229  ARG229     -0.0865
     93  CZ        15.3260    2.7320  -10.6680 C.cat 229  ARG229      0.5346
     94  NH1       14.2750    3.0760  -11.3980 N.pl3 229  ARG229      0.1354
     95  NH2       15.7420    3.5330   -9.7050 N.pl3 229  ARG229      0.1354
     96  N         12.5460   -7.5200  -16.3520 N.3   238  LYS238     -0.1245
     97  CA        12.6720   -6.9200  -15.0220 C.3   238  LYS238      0.1561
     98  C         11.7020   -7.5750  -14.0490 C.2   238  LYS238      0.2260
     99  O         10.5460   -7.8370  -14.3900 O.2   238  LYS238     -0.2867
    100  CB        12.3960   -5.4140  -15.0670 C.3   238  LYS238      0.0271
    101  CG        13.4340   -4.6050  -15.8300 C.3   238  LYS238      0.0035
    102  CD        13.0980   -3.1100  -15.8690 C.3   238  LYS238      0.0206
    103  CE        13.3900   -2.4010  -14.5370 C.3   238  LYS238      0.1093
    104  NZ        12.9890   -0.9460  -14.5370 N.3   238  LYS238     -0.1314
    105  N          9.2920   -7.1370  -11.8200 N.3   240  TYR240     -0.1227
    106  CA         8.2840   -6.2360  -11.2790 C.3   240  TYR240      0.1736
    107  C          7.3900   -7.1570  -10.4330 C.2   240  TYR240      0.2595
    108  O          7.5070   -8.3830  -10.5260 O.2   240  TYR240     -0.2718
    109  CB         7.4600   -5.6060  -12.4090 C.3   240  TYR240      0.0548
    110  CG         8.1540   -4.4910  -13.1480 C.ar  240  TYR240     -0.0200
    111  CD1        8.5730   -3.3390  -12.4780 C.ar  240  TYR240     -0.0009
    112  CD2        8.3810   -4.5790  -14.5150 C.ar  240  TYR240     -0.0009
    113  CE1        9.1950   -2.3030  -13.1410 C.ar  240  TYR240      0.0417
    114  CE2        9.0070   -3.5450  -15.1960 C.ar  240  TYR240      0.0417
    115  CZ         9.4110   -2.4080  -14.5020 C.ar  240  TYR240      0.1957
    116  OH        10.0280   -1.3750  -15.1750 O.3   240  TYR240     -0.2866
    117  N          6.4960   -6.5900   -9.6270 N.am  241  ILE241     -0.1966
    118  CA         5.6190   -7.4040   -8.7890 C.3   241  ILE241      0.1727
    119  C          4.8610   -8.5180   -9.5460 C.2   241  ILE241      0.2616
    120  O          4.8280   -9.6590   -9.0820 O.2   241  ILE241     -0.2715
    121  CB         4.6690   -6.5110   -7.9310 C.3   241  ILE241      0.0290
    122  CG1        3.9090   -7.3480   -6.9160 C.3   241  ILE241      0.0022
    123  CG2        3.7190   -5.7040   -8.8060 C.3   241  ILE241      0.0023
    124  CD1        3.1620   -6.5020   -5.8860 C.3   241  ILE241      0.0001
    125  N          4.3180   -8.2260  -10.7300 N.am  242  GLN242     -0.1977
    126  CA         3.5880   -9.2540  -11.4830 C.3   242  GLN242      0.1601
    127  C          4.4550  -10.3810  -12.0670 C.2   242  GLN242      0.2287
    128  O          3.9720  -11.4910  -12.2870 O.2   242  GLN242     -0.2864
    129  CB         2.7090   -8.6230  -12.5680 C.3   242  GLN242      0.0394
    130  CG         3.4240   -7.6980  -13.5510 C.3   242  GLN242      0.0908
    131  CD         3.6470   -6.2850  -13.0230 C.2   242  GLN242      0.2608
    132  OE1        3.0120   -5.8420  -12.0640 O.2   242  GLN242     -0.2717
    133  NE2        4.5460   -5.5620  -13.6740 N.am  242  GLN242     -0.0878
    134  N         -1.9510   -1.8840   -3.1300 N.3   266  CYS266     -0.1221
    135  CA        -1.6460   -0.5020   -2.7610 C.3   266  CYS266      0.1808
    136  C         -0.3090   -0.0310   -3.3450 C.2   266  CYS266      0.2602
    137  O          0.6580   -0.7860   -3.3740 O.2   266  CYS266     -0.2717
    138  CB        -1.6310   -0.3750   -1.2360 C.3   266  CYS266      0.0970
    139  SG        -1.5560    1.3020   -0.6400 S.3   266  CYS266     -0.0800
    140  N         -0.2590    1.2190   -3.8060 N.am  267  GLY267     -0.1942
    141  CA         0.9620    1.7580   -4.3820 C.3   267  GLY267      0.2014
    142  C          0.7150    2.5000   -5.6850 C.2   267  GLY267      0.2638
    143  O         -0.2560    3.2440   -5.8010 O.2   267  GLY267     -0.2714
    144  N          1.6000    2.2880   -6.6600 N.am  268  LEU268     -0.1977
    145  CA         1.5400    2.9220   -7.9870 C.3   268  LEU268      0.1596
    146  C          0.2830    2.5800   -8.7720 C.2   268  LEU268      0.2287
    147  O         -0.1340    1.4290   -8.8180 O.2   268  LEU268     -0.2864
    148  CB         2.7360    2.4980   -8.8500 C.3   268  LEU268      0.0297
    149  CG         4.1810    2.7790   -8.4440 C.3   268  LEU268      0.0022
    150  CD1        5.0860    2.1710   -9.4600 C.3   268  LEU268      0.0001
    151  CD2        4.4420    4.2540   -8.3500 C.3   268  LEU268      0.0001
    152  N         -0.0290    2.3430  -11.8920 N.3   270  GLY270     -0.1210
    153  CA         0.2860    1.4010  -12.9500 C.3   270  GLY270      0.1956
    154  C          0.4120   -0.0820  -12.6490 C.2   270  GLY270      0.2611
    155  O          0.2580   -0.8920  -13.5620 O.2   270  GLY270     -0.2717
    156  N          0.6630   -0.4460  -11.3890 N.am  271  MET271     -0.1979
    157  CA         0.8280   -1.8580  -11.0030 C.3   271  MET271      0.1605
    158  C         -0.4280   -2.6710  -11.3120 C.2   271  MET271      0.2287
    159  O         -0.3850   -3.8860  -11.5270 O.2   271  MET271     -0.2864
    160  CB         1.1530   -1.9690   -9.5090 C.3   271  MET271      0.0413
    161  CG        -0.0510   -1.7810   -8.5920 C.3   271  MET271      0.0598
    162  SD         0.4110   -1.6670   -6.8800 S.3   271  MET271     -0.1393
    163  CE         0.8650   -3.3770   -6.5460 C.3   271  MET271      0.0692
    164  N         -0.3280   -4.6830  -15.0520 N.3   274  GLY274     -0.1225
    165  CA         0.4700   -5.8900  -15.1950 C.3   274  GLY274      0.1811
    166  C         -0.0990   -7.0710  -14.4280 C.2   274  GLY274      0.2280
    167  O          0.0570   -8.2300  -14.8290 O.2   274  GLY274     -0.2866
    168  N         -6.1730    0.4180   -3.6930 N.3   306  GLU306     -0.1231
    169  CA        -5.9620    1.8190   -3.3370 C.3   306  GLU306      0.1699
    170  C         -4.6210    2.2460   -3.9260 C.2   306  GLU306      0.2592
    171  O         -3.5610    1.9940   -3.3600 O.2   306  GLU306     -0.2718
    172  CB        -6.0250    2.0590   -1.8200 C.3   306  GLU306      0.0402
    173  CG        -6.6500    3.4110   -1.4630 C.3   306  GLU306      0.1161
    174  CD        -6.8420    3.6140    0.0270 C.2   306  GLU306      0.3649
    175  OE1       -5.8570    3.8970    0.7320 O.co2 306  GLU306     -0.2457
    176  OE2       -7.9880    3.5140    0.5050 O.co2 306  GLU306     -0.2457
    177  N         -4.6800    2.8090   -5.1250 N.am  307  VAL307     -0.1966
    178  CA        -3.4890    3.2450   -5.8240 C.3   307  VAL307      0.1727
    179  C         -3.6490    4.6870   -6.2990 C.2   307  VAL307      0.2616
    180  O         -4.7640    5.1720   -6.5030 O.2   307  VAL307     -0.2715
    181  CB        -3.1800    2.3310   -7.0400 C.3   307  VAL307      0.0290
    182  CG1       -2.8770    0.9150   -6.5830 C.3   307  VAL307      0.0023
    183  CG2       -4.3470    2.3150   -8.0070 C.3   307  VAL307      0.0023
    184  N         -2.5240    5.3730   -6.4570 N.am  308  SER308     -0.1950
    185  CA        -2.5220    6.7470   -6.9230 C.3   308  SER308      0.1924
    186  C         -1.2390    7.0280   -7.7020 C.2   308  SER308      0.2314
    187  O         -0.3020    6.2040   -7.6450 O.2   308  SER308     -0.2863
    188  CB        -2.6480    7.7070   -5.7410 C.3   308  SER308      0.2116
    189  OG        -1.4990    7.6530   -4.9120 O.3   308  SER308     -0.2180
@<TRIPOS>BOND
     1    96    97    1
     2   102   101    1
     3   102   103    1
     4   101   100    1
     5   114   112   ar
     6   114   115   ar
     7   165   164    1
     8   165   166    1
     9   116   115    1
    10   100    97    1
    11    97    98    1
    12   167   166    2
    13   104   103    1
    14   112   110   ar
    15   115   113   ar
    16    99    98    2
    17   133   131   am
    18   155   154    2
    19   130   131    1
    20   130   129    1
    21   110   111   ar
    22   110   109    1
    23   113   111   ar
    24   131   132    2
    25   153   154    1
    26   153   152    1
    27   154   156   am
    28   129   126    1
    29    82    81    2
    30   109   106    1
    31   128   127    2
    32   127   126    1
    33    91    90    1
    34    91    92    1
    35   105   106    1
    36   159   158    2
    37    88    87    2
    38   126   125    1
    39    94    93    1
    40   156   157    1
    41    86    89    1
    42    86    87    1
    43    86    85    1
    44    90    89    1
    45   158   157    1
    46    81    85   am
    47    81    80    1
    48   106   107    1
    49   157   160    1
    50    92    93    2
    51    83    80    1
    52    83    84    1
    53   125   119   am
    54    93    95    1
    55    80    79    1
    56   108   107    2
    57   107   117   am
    58   117   118    1
    59   119   120    2
    60   119   118    1
    61   160   161    1
    62   150   149    1
    63   148   149    1
    64   148   145    1
    65   147   146    2
    66   123   121    1
    67   118   121    1
    68   146   145    1
    69   161   162    1
    70   149   151    1
    71   183   181    1
    72   145   144    1
    73    70    69    2
    74   121   122    1
    75    71    68    1
    76    71    72    1
    77   186   187    2
    78   186   185    1
    79    68    69    1
    80    68    67    1
    81    78    75    1
    82   181   182    1
    83   181   178    1
    84    35    33    1
    85   185   184    1
    86   185   188    1
    87   122   124    1
    88    77    76    2
    89   162   163    1
    90    76    75    1
    91   144   142   am
    92    63    62    2
    93    72    73    1
    94    75    74    1
    95   180   179    2
    96   184   179   am
    97    67    62   am
    98    67    73    1
    99   179   178    1
   100    34    33    1
   101    33    30    1
   102    62    61    1
   103   178   177    1
   104   143   142    2
   105   188   189    1
   106   142   141    1
   107    57    58    1
   108    57    56    1
   109    60    58   am
   110    60    61    1
   111    58    59    2
   112   177   170   am
   113    61    64    1
   114    28    27    1
   115    30    29    1
   116    30    31    1
   117   141   140    1
   118   170   171    2
   119   170   169    1
   120    31    36   am
   121    31    32    2
   122   140   136   am
   123   168   169    1
   124    36    37    1
   125    64    66    1
   126    64    65    1
   127    27    26    1
   128   137   136    2
   129   136   135    1
   130   169   172    1
   131   134   135    1
   132    37    38    1
   133   135   138    1
   134    25    26    1
   135    25    24    1
   136   172   173    1
   137    38    40   am
   138    38    39    2
   139   173   174    1
   140    24    21    1
   141    40    41    1
   142   138   139    1
   143    45    44    1
   144    47    48    1
   145    47    42   am
   146    48    49    1
   147    23    22    2
   148    22    21    1
   149    21    20    1
   150    41    42    1
   151    41    44    1
   152   174   176   ar
   153   174   175   ar
   154    42    43    2
   155    49    50    2
   156    44    46    1
   157     6     5    1
   158     1     2    1
   159     5     2    1
   160     5     7    1
   161     2     3    1
   162    19    18    1
   163    51    52    1
   164    18    15    1
   165    13    12    1
   166     3     4    2
   167    14    15    1
   168    55    52    1
   169    15    16    1
   170    52    53    1
   171    12     9    1
   172    53    54    2
   173    16    17    2
   174     9     8    1
   175     9    10    1
   176    10    11    2
