@<TRIPOS>MOLECULE
tmp/1qfyA00.pdb
 166 159 0 0 0
SMALL
GASTEIGER

@<TRIPOS>ATOM
      1  N         -6.1190    6.1530    6.2810 N.3    69  SER69      -0.1217
      2  CA        -5.1440    7.2050    6.0010 C.3    69  SER69       0.1889
      3  C         -5.4030    8.4030    6.8910 C.2    69  SER69       0.2288
      4  O         -6.4370    8.4930    7.5420 O.2    69  SER69      -0.2866
      5  CB        -5.3100    7.7060    4.5600 C.3    69  SER69       0.2089
      6  OG        -5.1710    6.6770    3.6070 O.3    69  SER69      -0.2183
      7  N         -2.3660   16.5610    2.2610 N.3    87  ARG87      -0.1231
      8  CA        -1.9190   15.4720    1.3930 C.3    87  ARG87       0.1694
      9  C         -2.2390   14.2550    2.2510 C.2    87  ARG87       0.2592
     10  O         -2.0760   14.3040    3.4650 O.2    87  ARG87      -0.2718
     11  CB        -0.4020   15.5310    1.1100 C.3    87  ARG87       0.0321
     12  CG         0.0310   16.2980   -0.1520 C.3    87  ARG87       0.0489
     13  CD         0.0150   17.8200    0.0390 C.3    87  ARG87       0.2205
     14  NE         0.7570   18.5080   -1.0190 N.pl3  87  ARG87      -0.0865
     15  CZ         0.6660   19.8120   -1.2700 C.cat  87  ARG87       0.5346
     16  NH1       -0.1430   20.5690   -0.5320 N.pl3  87  ARG87       0.1354
     17  NH2        1.3820   20.3650   -2.2450 N.pl3  87  ARG87       0.1354
     18  N         -2.7630   13.2020    1.6350 N.am   88  LEU88      -0.1966
     19  CA        -3.0930   11.9850    2.3740 C.3    88  LEU88       0.1728
     20  C         -1.9260   11.0020    2.4260 C.2    88  LEU88       0.2616
     21  O         -1.1050   10.9500    1.5040 O.2    88  LEU88      -0.2715
     22  CB        -4.2970   11.2950    1.7530 C.3    88  LEU88       0.0311
     23  CG        -5.6360   12.0250    1.8760 C.3    88  LEU88       0.0022
     24  CD1       -6.6770   11.3030    1.0340 C.3    88  LEU88       0.0001
     25  CD2       -6.0640   12.1020    3.3300 C.3    88  LEU88       0.0001
     26  N         -1.8230   10.2710    3.5390 N.am   89  TYR89      -0.1960
     27  CA        -0.7660    9.2700    3.7160 C.3    89  TYR89       0.1771
     28  C         -1.3450    8.0420    4.4070 C.2    89  TYR89       0.2620
     29  O         -2.0570    8.1740    5.4030 O.2    89  TYR89      -0.2715
     30  CB         0.4290    9.8410    4.5180 C.3    89  TYR89       0.0574
     31  CG         1.1900   10.9390    3.7870 C.ar   89  TYR89      -0.0198
     32  CD1        2.1950   10.6240    2.8640 C.ar   89  TYR89      -0.0009
     33  CD2        0.8490   12.2850    3.9570 C.ar   89  TYR89      -0.0009
     34  CE1        2.8340   11.6150    2.1160 C.ar   89  TYR89       0.0417
     35  CE2        1.4810   13.2940    3.2150 C.ar   89  TYR89       0.0417
     36  CZ         2.4690   12.9560    2.2890 C.ar   89  TYR89       0.1957
     37  OH         3.0620   13.9410    1.5080 O.3    89  TYR89      -0.2866
     38  N         -1.1320    6.8630    3.8150 N.am   90  SER90      -0.1950
     39  CA        -1.6110    5.6130    4.4120 C.3    90  SER90       0.1924
     40  C         -0.8650    5.3830    5.7270 C.2    90  SER90       0.2314
     41  O          0.3360    5.6080    5.8270 O.2    90  SER90      -0.2863
     42  CB        -1.3900    4.4140    3.4770 C.3    90  SER90       0.2116
     43  OG        -2.2800    4.4220    2.3770 O.3    90  SER90      -0.2180
     44  N          5.1230    6.2830    6.3200 N.3   108  CYS108     -0.1221
     45  CA         6.2200    5.8440    5.4630 C.3   108  CYS108      0.1808
     46  C          6.1540    6.8390    4.2990 C.2   108  CYS108      0.2601
     47  O          5.2570    6.7630    3.4590 O.2   108  CYS108     -0.2717
     48  CB         5.9420    4.4120    4.9870 C.3   108  CYS108      0.0970
     49  SG         7.1750    3.6850    3.8990 S.3   108  CYS108     -0.0800
     50  N          7.1060    7.7720    4.2590 N.am  109  VAL109     -0.1965
     51  CA         7.1000    8.8460    3.2510 C.3   109  VAL109      0.1727
     52  C          8.3020    8.9020    2.2980 C.2   109  VAL109      0.2616
     53  O          9.4610    8.9350    2.7250 O.2   109  VAL109     -0.2715
     54  CB         6.9630   10.2520    3.9520 C.3   109  VAL109      0.0290
     55  CG1        6.7850   11.3680    2.9310 C.3   109  VAL109      0.0023
     56  CG2        5.8010   10.2580    4.9500 C.3   109  VAL109      0.0023
     57  N          8.0050    8.9080    1.0000 N.am  110  LYS110     -0.1977
     58  CA         9.0280    9.0280   -0.0420 C.3   110  LYS110      0.1596
     59  C          9.2500   10.5290   -0.2990 C.2   110  LYS110      0.2287
     60  O          8.2930   11.2610   -0.5300 O.2   110  LYS110     -0.2864
     61  CB         8.5360    8.3550   -1.3310 C.3   110  LYS110      0.0298
     62  CG         9.3350    8.6820   -2.5790 C.3   110  LYS110      0.0038
     63  CD        10.7430    8.1680   -2.4650 C.3   110  LYS110      0.0206
     64  CE        10.9870    7.0260   -3.4250 C.3   110  LYS110      0.1093
     65  NZ        10.9020    7.4880   -4.8410 N.3   110  LYS110     -0.1314
     66  N          9.6880   13.4390   -2.4230 N.3   112  LEU112     -0.1231
     67  CA         9.4850   13.7180   -3.8510 C.3   112  LEU112      0.1693
     68  C         10.4140   14.8270   -4.3500 C.2   112  LEU112      0.2592
     69  O         10.3450   15.9590   -3.8810 O.2   112  LEU112     -0.2718
     70  CB         8.0130   14.0870   -4.1550 C.3   112  LEU112      0.0284
     71  CG         7.6720   14.5850   -5.5790 C.3   112  LEU112      0.0019
     72  CD1        7.8920   13.4760   -6.6000 C.3   112  LEU112      0.0001
     73  CD2        6.2330   15.0640   -5.6520 C.3   112  LEU112      0.0001
     74  N         11.3050   14.4600   -5.2670 N.am  113  VAL113     -0.1966
     75  CA        12.2570   15.3810   -5.8780 C.3   113  VAL113      0.1727
     76  C         12.3470   15.0470   -7.3660 C.2   113  VAL113      0.2616
     77  O         12.5390   13.8850   -7.7450 O.2   113  VAL113     -0.2715
     78  CB        13.6690   15.2420   -5.2990 C.3   113  VAL113      0.0290
     79  CG1       14.6250   16.0990   -6.0960 C.3   113  VAL113      0.0023
     80  CG2       13.6960   15.6410   -3.8350 C.3   113  VAL113      0.0023
     81  N         12.2030   16.0680   -8.2050 N.am  114  TYR114     -0.1960
     82  CA        12.2670   15.8890   -9.6480 C.3   114  TYR114      0.1771
     83  C         12.6590   17.2030  -10.3140 C.2   114  TYR114      0.2620
     84  O         12.8980   18.2030   -9.6410 O.2   114  TYR114     -0.2715
     85  CB        10.9090   15.4130  -10.1840 C.3   114  TYR114      0.0574
     86  CG         9.8000   16.4400  -10.1200 C.ar  114  TYR114     -0.0198
     87  CD1        9.5950   17.3410  -11.1720 C.ar  114  TYR114     -0.0009
     88  CD2        8.9420   16.4960   -9.0260 C.ar  114  TYR114     -0.0009
     89  CE1        8.5670   18.2700  -11.1360 C.ar  114  TYR114      0.0417
     90  CE2        7.9110   17.4160   -8.9730 C.ar  114  TYR114      0.0417
     91  CZ         7.7230   18.3040  -10.0340 C.ar  114  TYR114      0.1957
     92  OH         6.6920   19.2180   -9.9990 O.3   114  TYR114     -0.2866
     93  N         12.7640   17.1800  -11.6370 N.am  115  THR115     -0.1937
     94  CA        13.0870   18.3830  -12.3910 C.3   115  THR115      0.2028
     95  C         12.0920   18.5930  -13.5380 C.2   115  THR115      0.2642
     96  O         11.8340   17.6880  -14.3390 O.2   115  THR115     -0.2714
     97  CB        14.5740   18.4300  -12.8610 C.3   115  THR115      0.1808
     98  OG1       14.6540   18.9880  -14.1760 O.3   115  THR115     -0.2208
     99  CG2       15.2190   17.0760  -12.8250 C.3   115  THR115      0.0379
    100  N         11.4780   19.7740  -13.5430 N.am  116  ASN116     -0.1971
    101  CA        10.4890   20.1480  -14.5440 C.3   116  ASN116      0.1688
    102  C         11.1060   20.3540  -15.9180 C.2   116  ASN116      0.2292
    103  O         12.3270   20.3080  -16.0790 O.2   116  ASN116     -0.2864
    104  CB         9.7520   21.4160  -14.1050 C.3   116  ASN116      0.1181
    105  CG        10.6970   22.5870  -13.8280 C.2   116  ASN116      0.2629
    106  OD1       11.8470   22.5990  -14.2730 O.2   116  ASN116     -0.2716
    107  ND2       10.2090   23.5760  -13.0860 N.am  116  ASN116     -0.0877
    108  N         11.0400   20.2300   -5.5030 N.3   123  LYS123     -0.1231
    109  CA        10.8450   19.4080   -4.3200 C.3   123  LYS123      0.1693
    110  C          9.3720   19.4110   -3.9140 C.2   123  LYS123      0.2593
    111  O          8.7860   20.4790   -3.7450 O.2   123  LYS123     -0.2718
    112  CB        11.6920   19.9470   -3.1660 C.3   123  LYS123      0.0285
    113  CG        13.1770   19.7700   -3.3930 C.3   123  LYS123      0.0035
    114  CD        14.0020   20.3430   -2.2630 C.3   123  LYS123      0.0206
    115  CE        15.4190   19.7650   -2.3100 C.3   123  LYS123      0.1093
    116  NZ        16.4950   20.8090   -2.2580 N.3   123  LYS123     -0.1314
    117  N          8.7710   18.2280   -3.8000 N.am  124  GLY124     -0.1942
    118  CA         7.3810   18.1430   -3.3830 C.3   124  GLY124      0.2014
    119  C          7.2310   18.8460   -2.0420 C.2   124  GLY124      0.2639
    120  O          8.0900   18.7100   -1.1770 O.2   124  GLY124     -0.2714
    121  N          6.1500   19.6040   -1.8690 N.am  125  VAL125     -0.1963
    122  CA         5.9390   20.3610   -0.6460 C.3   125  VAL125      0.1727
    123  C          5.7400   19.5400    0.6130 C.2   125  VAL125      0.2616
    124  O          6.5270   19.6630    1.5510 O.2   125  VAL125     -0.2715
    125  CB         4.7590   21.3760   -0.7770 C.3   125  VAL125      0.0290
    126  CG1        4.5270   22.1160    0.5560 C.3   125  VAL125      0.0023
    127  CG2        5.0410   22.3950   -1.8930 C.3   125  VAL125      0.0023
    128  N          4.6970   18.7140    0.6510 N.am  126  CYS126     -0.1954
    129  CA         4.4220   17.9500    1.8590 C.3   126  CYS126      0.1843
    130  C          5.4340   16.8610    2.1990 C.2   126  CYS126      0.2626
    131  O          5.8190   16.7330    3.3600 O.2   126  CYS126     -0.2714
    132  CB         3.0130   17.3770    1.8290 C.3   126  CYS126      0.0997
    133  SG         2.3640   16.9620    3.4720 S.3   126  CYS126     -0.0797
    134  N          5.8840   16.1010    1.2010 N.am  127  SER127     -0.1950
    135  CA         6.8520   15.0290    1.4360 C.3   127  SER127      0.1924
    136  C          8.1810   15.5580    1.9760 C.2   127  SER127      0.2314
    137  O          8.7950   14.9370    2.8310 O.2   127  SER127     -0.2863
    138  CB         7.0670   14.1810    0.1740 C.3   127  SER127      0.2116
    139  OG         7.7520   14.9030   -0.8390 O.3   127  SER127     -0.2180
    140  N          6.0350    2.8460   -1.2740 N.3   166  THR166     -0.1218
    141  CA         5.3820    3.2400   -0.0290 C.3   166  THR166      0.1862
    142  C          3.9810    2.6510    0.1140 C.2   166  THR166      0.2287
    143  O          3.3310    2.8130    1.1590 O.2   166  THR166     -0.2866
    144  CB         5.3310    4.7800    0.1540 C.3   166  THR166      0.1770
    145  OG1        4.7550    5.3840   -1.0080 O.3   166  THR166     -0.2211
    146  CG2        6.7180    5.3380    0.3740 C.3   166  THR166      0.0375
    147  N          2.9140    0.6180    3.2070 N.3   169  ALA169     -0.1245
    148  CA         2.3780    1.2010    4.4550 C.3   169  ALA169      0.1562
    149  C          1.1960    0.4950    5.1590 C.2   169  ALA169      0.2260
    150  O          1.3330    0.0720    6.3140 O.2   169  ALA169     -0.2867
    151  CB         2.0820    2.7060    4.2690 C.3   169  ALA169      0.0290
    152  N         -6.1730    0.4180   -3.6930 N.3   306  GLU306     -0.1245
    153  CA        -5.9620    1.8190   -3.3370 C.3   306  GLU306      0.1567
    154  C         -4.6210    2.2460   -3.9260 C.2   306  GLU306      0.2260
    155  O         -3.5610    1.9940   -3.3600 O.2   306  GLU306     -0.2867
    156  CB        -6.0250    2.0590   -1.8200 C.3   306  GLU306      0.0388
    157  CG        -6.6500    3.4110   -1.4630 C.3   306  GLU306      0.1160
    158  CD        -6.8420    3.6140    0.0270 C.2   306  GLU306      0.3649
    159  OE1       -5.8570    3.8970    0.7320 O.co2 306  GLU306     -0.2457
    160  OE2       -7.9880    3.5140    0.5050 O.co2 306  GLU306     -0.2457
    161  N         -2.5240    5.3730   -6.4570 N.3   308  SER308     -0.1217
    162  CA        -2.5220    6.7470   -6.9230 C.3   308  SER308      0.1889
    163  C         -1.2390    7.0280   -7.7020 C.2   308  SER308      0.2288
    164  O         -0.3020    6.2040   -7.6450 O.2   308  SER308     -0.2866
    165  CB        -2.6480    7.7070   -5.7410 C.3   308  SER308      0.2089
    166  OG        -1.4990    7.6530   -4.9120 O.3   308  SER308     -0.2183
@<TRIPOS>BOND
     1   103   102    2
     2   102   101    1
     3   101   104    1
     4   101   100    1
     5    96    95    2
     6   106   105    2
     7    98    97    1
     8   104   105    1
     9   105   107   am
    10   100    95   am
    11    95    94    1
    12    97    99    1
    13    97    94    1
    14    94    93    1
    15    93    83   am
    16    87    89   ar
    17    87    86   ar
    18    89    91   ar
    19    83    82    1
    20    83    84    2
    21    85    86    1
    22    85    82    1
    23    86    88   ar
    24    91    92    1
    25    91    90   ar
    26    82    81    1
    27    88    90   ar
    28    81    76   am
    29    77    76    2
    30   163   164    2
    31   163   162    1
    32    76    75    1
    33   162   161    1
    34   162   165    1
    35    72    71    1
    36    79    78    1
    37    75    78    1
    38    75    74    1
    39   165   166    1
    40    73    71    1
    41    71    70    1
    42   108   109    1
    43    78    80    1
    44    74    68   am
    45    65    64    1
    46    68    69    2
    47    68    67    1
    48   109   110    1
    49   109   112    1
    50    70    67    1
    51   154   155    2
    52   154   153    1
    53   110   117   am
    54   110   111    2
    55    67    66    1
    56   117   118    1
    57   152   153    1
    58    64    63    1
    59   113   112    1
    60   113   114    1
    61   118   119    1
    62   153   156    1
    63    62    63    1
    64    62    61    1
    65   115   114    1
    66   115   116    1
    67    17    15    1
    68   119   121   am
    69   119   120    2
    70   127   125    1
    71   121   122    1
    72   156   157    1
    73   157   158    1
    74    61    58    1
    75   140   141    1
    76    15    14    2
    77    15    16    1
    78    14    13    1
    79   145   144    1
    80   139   138    1
    81   125   122    1
    82   125   126    1
    83   122   123    1
    84    60    59    2
    85    59    58    1
    86    12    13    1
    87    12    11    1
    88    58    57    1
    89   141   142    1
    90   141   144    1
    91   158   160   ar
    92   158   159   ar
    93   142   143    2
    94   144   146    1
    95   138   135    1
    96   123   128   am
    97   123   124    2
    98   128   129    1
    99    57    52   am
   100    24    23    1
   101    11     8    1
   102   134   135    1
   103   134   130   am
   104     8     9    1
   105     8     7    1
   106   135   136    1
   107    21    20    2
   108    37    36    1
   109    18     9   am
   110    18    19    1
   111    22    23    1
   112    22    19    1
   113   132   129    1
   114   132   133    1
   115   129   130    1
   116    23    25    1
   117   136   137    2
   118    34    36   ar
   119    34    32   ar
   120   130   131    2
   121     9    10    2
   122    36    35   ar
   123    52    53    2
   124    52    51    1
   125    19    20    1
   126    43    42    1
   127    20    26   am
   128    32    31   ar
   129    55    54    1
   130   147   148    1
   131    35    33   ar
   132    51    54    1
   133    51    50    1
   134    47    46    2
   135    42    39    1
   136    26    27    1
   137     6     5    1
   138    27    28    1
   139    27    30    1
   140    31    33   ar
   141    31    30    1
   142    38    28   am
   143    38    39    1
   144    49    48    1
   145    54    56    1
   146    50    46   am
   147   151   148    1
   148    46    45    1
   149    28    29    2
   150    39    40    1
   151   148   149    1
   152     5     2    1
   153    48    45    1
   154   149   150    2
   155    45    44    1
   156    40    41    2
   157     2     1    1
   158     2     3    1
   159     3     4    2
